xflr5 v6.42

 Calculated polar for: clarky

 1 1 Reynolds number fixed          Mach number fixed         

 xtrf =   0.250 (top)        0.250 (bottom)
 Mach =   0.000     Re =     0.010 e 6     Ncrit =   5.000

  alpha     CL        CD       CDp       Cm    Top Xtr Bot Xtr   Cpmin    Chinge    XCp    
 ------- -------- --------- --------- -------- ------- ------- -------- --------- ---------
 -10.000  -0.3601   0.13694   0.11870  -0.0292  0.2500  0.2500  -1.4835   0.0000   0.1567
  -9.500  -0.3534   0.13041   0.11224  -0.0312  0.2500  0.2500  -1.4877   0.0000   0.1502
  -9.000  -0.3479   0.12388   0.10582  -0.0331  0.2500  0.2500  -1.5041   0.0000   0.1439
  -8.500  -0.3443   0.11740   0.09945  -0.0349  0.2500  0.2500  -1.5222   0.0000   0.1383
  -8.000  -0.3413   0.11086   0.09304  -0.0370  0.2500  0.2500  -1.5422   0.0000   0.1319
  -7.500  -0.3375   0.10410   0.08638  -0.0394  0.2500  0.2500  -1.5616   0.0000   0.1240
  -7.000  -0.3333   0.09725   0.07960  -0.0420  0.2500  0.2500  -1.5804   0.0000   0.1156
  -6.500  -0.3278   0.09030   0.07266  -0.0445  0.2500  0.2500  -1.5966   0.0000   0.1062
  -6.000  -0.3187   0.08325   0.06537  -0.0472  0.2500  0.2500  -1.6263   0.0000   0.0944
  -5.500  -0.3036   0.07613   0.05796  -0.0500  0.2500  0.2500  -1.6518   0.0000   0.0779
  -5.000  -0.2791   0.06909   0.05035  -0.0531  0.2500  0.2500  -1.6616   0.0000   0.0526
  -4.500  -0.2427   0.06233   0.04274  -0.0561  0.2500  0.2500  -1.6483   0.0000   0.0109
  -4.000  -0.1945   0.05617   0.03547  -0.0590  0.2500  0.2500  -1.6343   0.0000  -0.0622
  -3.500  -0.1400   0.05099   0.02918  -0.0606  0.2500  0.2500  -1.6026   0.0000  -0.1942
  -3.000  -0.0876   0.04721   0.02458  -0.0606  0.2500  0.2500  -1.5294   0.0000  -0.4574
  -2.500  -0.0406   0.04516   0.02168  -0.0593  0.2500  0.2500  -1.4089   0.0000  -1.2393
  -2.000   0.0045   0.04418   0.01989  -0.0578  0.2500  0.2500  -1.2613   0.0000  13.2900
  -1.500   0.0488   0.04371   0.01864  -0.0563  0.2500  0.2500  -1.1035   0.0000   1.4175
  -1.000   0.0926   0.04354   0.01782  -0.0548  0.2500  0.2500  -0.9640   0.0000   0.8467
  -0.500   0.1357   0.04359   0.01731  -0.0534  0.2500  0.2500  -0.8349   0.0000   0.6444
   0.000   0.1781   0.04383   0.01708  -0.0519  0.2500  0.2500  -0.7075   0.0000   0.5406
   0.500   0.2193   0.04423   0.01714  -0.0504  0.2500  0.2500  -0.6262   0.0000   0.4775
   1.000   0.2594   0.04482   0.01746  -0.0488  0.2500  0.2500  -0.6628   0.0000   0.4349
   1.500   0.2987   0.04557   0.01803  -0.0472  0.2500  0.2500  -0.6985   0.0000   0.4042
   2.000   0.3372   0.04651   0.01884  -0.0457  0.2500  0.2500  -0.7338   0.0000   0.3811
   2.500   0.3747   0.04764   0.01992  -0.0443  0.2500  0.2500  -0.7710   0.0000   0.3632
   3.000   0.4114   0.04899   0.02130  -0.0430  0.2500  0.2500  -0.8069   0.0000   0.3490
   3.500   0.4471   0.05058   0.02297  -0.0418  0.2500  0.2500  -0.8442   0.0000   0.3376
   4.000   0.4815   0.05242   0.02498  -0.0408  0.2500  0.2500  -0.8829   0.0000   0.3283
   4.500   0.5142   0.05455   0.02733  -0.0399  0.2500  0.2500  -0.9247   0.0000   0.3207
   5.000   0.5451   0.05697   0.03001  -0.0391  0.2500  0.2500  -0.9760   0.0000   0.3144
   5.500   0.5740   0.05975   0.03313  -0.0385  0.2500  0.2500  -1.0400   0.0000   0.3092
   6.000   0.6009   0.06288   0.03658  -0.0381  0.2500  0.2500  -1.1036   0.0000   0.3049
   6.500   0.6257   0.06641   0.04044  -0.0378  0.2500  0.2500  -1.1663   0.0000   0.3015
   7.000   0.6489   0.07029   0.04467  -0.0377  0.2500  0.2500  -1.2252   0.0000   0.2987
   7.500   0.6712   0.07448   0.04933  -0.0377  0.2500  0.2500  -1.2810   0.0000   0.2962
   8.000   0.6934   0.07885   0.05406  -0.0378  0.2500  0.2500  -1.3416   0.0000   0.2940
   8.500   0.7158   0.08338   0.05898  -0.0380  0.2500  0.2500  -1.4023   0.0000   0.2920
   9.000   0.7380   0.08804   0.06407  -0.0382  0.2500  0.2500  -1.4616   0.0000   0.2901
   9.500   0.7595   0.09292   0.06939  -0.0385  0.2500  0.2500  -1.5175   0.0000   0.2884
  10.000   0.7800   0.09816   0.07526  -0.0389  0.2500  0.2500  -1.5680   0.0000   0.2871
  10.500   0.7994   0.10386   0.08146  -0.0397  0.2500  0.2500  -1.6169   0.0000   0.2862
  11.000   0.8173   0.11019   0.08829  -0.0408  0.2500  0.2500  -1.7114   0.0000   0.2859
  11.500   0.8330   0.11728   0.09589  -0.0423  0.2500  0.2500  -1.8345   0.0000   0.2862
  12.000   0.8465   0.12522   0.10430  -0.0443  0.2500  0.2500  -1.9389   0.0000   0.2873
  12.500   0.8578   0.13393   0.11344  -0.0469  0.2500  0.2500  -2.0241   0.0000   0.2890
  13.000   0.8675   0.14323   0.12329  -0.0498  0.2500  0.2500  -2.0917   0.0000   0.2913
  13.500   0.8756   0.15293   0.13333  -0.0532  0.2500  0.2500  -2.1458   0.0000   0.2941
  14.000   0.8827   0.16276   0.14347  -0.0568  0.2500  0.2500  -2.1948   0.0000   0.2971
  14.500   0.8895   0.17252   0.15352  -0.0606  0.2500  0.2500  -2.2352   0.0000   0.3003
  15.000   0.8962   0.18210   0.16337  -0.0645  0.2500  0.2500  -2.2687   0.0000   0.3036
  15.500   0.9029   0.19136   0.17288  -0.0685  0.2500  0.2500  -2.2951   0.0000   0.3068
  16.000   0.9100   0.20034   0.18211  -0.0725  0.2500  0.2500  -2.3148   0.0000   0.3099
  16.500   0.9178   0.20919   0.19118  -0.0766  0.2500  0.2500  -2.3343   0.0000   0.3130
  17.000   0.9264   0.21793   0.20015  -0.0808  0.2500  0.2500  -2.3452   0.0000   0.3160
  17.500   0.9356   0.22663   0.20905  -0.0850  0.2500  0.2500  -2.3448   0.0000   0.3189
  18.000   0.9456   0.23529   0.21789  -0.0894  0.2500  0.2500  -2.3320   0.0000   0.3219
  18.500   0.9562   0.24388   0.22662  -0.0939  0.2500  0.2500  -2.3076   0.0000   0.3247
  19.000   0.9675   0.25236   0.23523  -0.0984  0.2500  0.2500  -2.2746   0.0000   0.3273
  19.500   0.9796   0.26069   0.24365  -0.1029  0.2500  0.2500  -2.2372   0.0000   0.3299
  20.000   0.9923   0.26884   0.25211  -0.1074  0.2500  0.2500  -2.1982   0.0000   0.3322


