xflr5 v6.42

 Calculated polar for: clarky

 1 1 Reynolds number fixed          Mach number fixed         

 xtrf =   0.250 (top)        0.250 (bottom)
 Mach =   0.000     Re =     0.300 e 6     Ncrit =   5.000

  alpha     CL        CD       CDp       Cm    Top Xtr Bot Xtr   Cpmin    Chinge    XCp    
 ------- -------- --------- --------- -------- ------- ------- -------- --------- ---------
 -10.000  -0.4102   0.08855   0.08278  -0.0473  0.2500  0.0245  -2.8568   0.0000   0.1217
  -9.500  -0.5329   0.04786   0.04202  -0.0815  0.2500  0.0258  -4.6752   0.0000   0.0856
  -9.000  -0.5477   0.03524   0.02841  -0.0848  0.2500  0.0274  -4.9104   0.0000   0.0842
  -8.500  -0.5149   0.03131   0.02381  -0.0843  0.2500  0.0289  -4.6114   0.0000   0.0756
  -8.000  -0.4749   0.02839   0.02035  -0.0835  0.2500  0.0296  -4.2785   0.0000   0.0636
  -7.500  -0.4315   0.02583   0.01731  -0.0827  0.2500  0.0299  -3.9747   0.0000   0.0479
  -7.000  -0.3885   0.02249   0.01343  -0.0817  0.2500  0.0309  -3.7053   0.0000   0.0291
  -6.500  -0.3405   0.02038   0.01098  -0.0809  0.2500  0.0317  -3.3867   0.0000   0.0015
  -6.000  -0.2904   0.01881   0.00914  -0.0802  0.2500  0.0324  -3.0981   0.0000  -0.0373
  -5.500  -0.2394   0.01759   0.00774  -0.0795  0.2500  0.0336  -2.8268   0.0000  -0.0941
  -5.000  -0.1876   0.01662   0.00663  -0.0788  0.2500  0.0352  -2.5881   0.0000  -0.1838
  -4.500  -0.1352   0.01584   0.00568  -0.0782  0.2500  0.0374  -2.3702   0.0000  -0.3449
  -4.000  -0.0822   0.01523   0.00494  -0.0777  0.2500  0.0392  -2.1456   0.0000  -0.7183
  -3.500  -0.0290   0.01468   0.00428  -0.0772  0.2500  0.0409  -1.9212   0.0000  -2.4701
  -3.000   0.0246   0.01421   0.00374  -0.0768  0.2500  0.0438  -1.6967   0.0000   3.4199
  -2.500   0.0787   0.01388   0.00336  -0.0764  0.2500  0.0482  -1.4738   0.0000   1.2328
  -2.000   0.1325   0.01350   0.00306  -0.0760  0.2500  0.0682  -1.2602   0.0000   0.8286
  -1.500   0.1863   0.01316   0.00283  -0.0757  0.2500  0.1136  -1.0540   0.0000   0.6581
  -1.000   0.2397   0.01278   0.00272  -0.0753  0.2500  0.1966  -0.8510   0.0000   0.5647
  -0.500   0.2938   0.01261   0.00266  -0.0750  0.2500  0.2500  -0.6847   0.0000   0.5047
   0.000   0.3488   0.01268   0.00263  -0.0748  0.2500  0.2500  -0.7217   0.0000   0.4627
   0.500   0.4037   0.01276   0.00264  -0.0745  0.2500  0.2500  -0.7738   0.0000   0.4323
   1.000   0.4584   0.01287   0.00270  -0.0742  0.2500  0.2500  -0.8262   0.0000   0.4090
   1.500   0.5129   0.01299   0.00279  -0.0739  0.2500  0.2500  -0.8791   0.0000   0.3907
   2.000   0.5672   0.01313   0.00293  -0.0736  0.2500  0.2500  -0.9340   0.0000   0.3759
   2.500   0.6213   0.01329   0.00311  -0.0732  0.2500  0.2500  -0.9914   0.0000   0.3636
   3.000   0.6750   0.01346   0.00333  -0.0728  0.2500  0.2500  -1.0491   0.0000   0.3531
   3.500   0.7284   0.01366   0.00359  -0.0724  0.2500  0.2500  -1.1108   0.0000   0.3442
   4.000   0.7816   0.01387   0.00387  -0.0720  0.2500  0.2500  -1.2273   0.0000   0.3363
   4.500   0.8343   0.01411   0.00420  -0.0714  0.2500  0.2500  -1.3473   0.0000   0.3294
   5.000   0.8865   0.01437   0.00459  -0.0709  0.2500  0.2500  -1.4810   0.0000   0.3232
   5.500   0.9383   0.01466   0.00500  -0.0702  0.2500  0.2500  -1.6172   0.0000   0.3176
   6.000   0.9896   0.01497   0.00546  -0.0695  0.2500  0.2500  -1.7557   0.0000   0.3124
   6.500   1.0403   0.01531   0.00600  -0.0687  0.2500  0.2500  -1.9053   0.0000   0.3077
   7.000   1.0903   0.01568   0.00657  -0.0679  0.2500  0.2500  -2.0628   0.0000   0.3032
   7.500   1.1395   0.01609   0.00719  -0.0669  0.2500  0.2500  -2.3048   0.0000   0.2990
   8.000   1.1792   0.01703   0.00799  -0.0646  0.2013  0.2500  -2.6355   0.0000   0.2945
   8.500   1.2127   0.01837   0.00909  -0.0615  0.1488  0.2500  -2.9599   0.0000   0.2897
   9.000   1.2422   0.01971   0.01030  -0.0577  0.1152  0.2500  -3.2945   0.0000   0.2848
   9.500   1.2731   0.02105   0.01162  -0.0544  0.0937  0.2500  -3.6525   0.0000   0.2803
  10.000   1.3032   0.02249   0.01307  -0.0512  0.0776  0.2500  -4.0167   0.0000   0.2762
  10.500   1.3309   0.02408   0.01470  -0.0479  0.0620  0.2500  -4.3776   0.0000   0.2721
  11.000   1.3478   0.02648   0.01704  -0.0439  0.0327  0.2500  -4.6949   0.0000   0.2679
  11.500   1.3596   0.02939   0.01995  -0.0398  0.0190  0.2500  -5.0171   0.0000   0.2637
  12.000   1.3752   0.03218   0.02294  -0.0366  0.0164  0.2500  -5.3659   0.0000   0.2602
  12.500   1.3863   0.03556   0.02653  -0.0337  0.0142  0.2500  -5.6903   0.0000   0.2570
  13.000   1.3925   0.03963   0.03090  -0.0312  0.0127  0.2500  -5.9770   0.0000   0.2541
  13.500   1.3943   0.04444   0.03600  -0.0293  0.0119  0.2500  -6.2387   0.0000   0.2518
  14.000   1.3956   0.04962   0.04146  -0.0282  0.0116  0.2500  -6.5088   0.0000   0.2499
  14.500   1.3913   0.05580   0.04796  -0.0278  0.0111  0.2500  -6.7380   0.0000   0.2487
  15.000   1.3828   0.06302   0.05546  -0.0283  0.0107  0.2500  -6.9325   0.0000   0.2481
  15.500   1.3707   0.07117   0.06388  -0.0297  0.0103  0.2500  -7.0935   0.0000   0.2482
  16.000   1.3551   0.08031   0.07330  -0.0319  0.0099  0.2500  -7.2188   0.0000   0.2490
  16.500   1.3367   0.09026   0.08351  -0.0348  0.0096  0.2500  -7.3095   0.0000   0.2504
  17.000   1.3170   0.10080   0.09430  -0.0384  0.0093  0.2500  -7.3720   0.0000   0.2525
  17.500   1.2971   0.11166   0.10540  -0.0424  0.0091  0.2500  -7.4134   0.0000   0.2550
  18.000   1.2782   0.12252   0.11647  -0.0468  0.0089  0.2500  -7.4447   0.0000   0.2579
  18.500   1.2614   0.13327   0.12743  -0.0515  0.0087  0.2500  -7.4746   0.0000   0.2610
  19.000   1.2468   0.14378   0.13811  -0.0565  0.0085  0.2500  -7.5030   0.0000   0.2644
  19.500   1.2340   0.15393   0.14842  -0.0615  0.0082  0.2500  -7.5189   0.0000   0.2679
  20.000   1.2259   0.16380   0.15850  -0.0668  0.0080  0.2500  -7.5595   0.0000   0.2715


