xflr5 v6.42

 Calculated polar for: clarky

 1 1 Reynolds number fixed          Mach number fixed         

 xtrf =   0.250 (top)        0.250 (bottom)
 Mach =   0.000     Re =     1.500 e 6     Ncrit =   5.000

  alpha     CL        CD       CDp       Cm    Top Xtr Bot Xtr   Cpmin    Chinge    XCp    
 ------- -------- --------- --------- -------- ------- ------- -------- --------- ---------
 -10.000  -0.7190   0.01704   0.01075  -0.0829  0.2500  0.0194  -7.2455   0.0000   0.1230
  -9.500  -0.6648   0.01684   0.01049  -0.0827  0.2500  0.0197  -6.5681   0.0000   0.1142
  -9.000  -0.6124   0.01627   0.00981  -0.0824  0.2500  0.0198  -5.9428   0.0000   0.1044
  -8.500  -0.5605   0.01549   0.00889  -0.0819  0.2500  0.0199  -5.3559   0.0000   0.0930
  -8.000  -0.5085   0.01469   0.00793  -0.0815  0.2500  0.0199  -4.8809   0.0000   0.0790
  -7.500  -0.4550   0.01416   0.00730  -0.0812  0.2500  0.0200  -4.4341   0.0000   0.0609
  -7.000  -0.4036   0.01312   0.00608  -0.0806  0.2500  0.0203  -4.0357   0.0000   0.0395
  -6.500  -0.3517   0.01214   0.00493  -0.0800  0.2500  0.0207  -3.6783   0.0000   0.0115
  -6.000  -0.2983   0.01144   0.00407  -0.0796  0.2500  0.0211  -3.3953   0.0000  -0.0282
  -5.500  -0.2441   0.01088   0.00339  -0.0793  0.2500  0.0221  -3.1430   0.0000  -0.0868
  -5.000  -0.1889   0.01053   0.00300  -0.0791  0.2500  0.0242  -2.8661   0.0000  -0.1823
  -4.500  -0.1331   0.01031   0.00273  -0.0790  0.2500  0.0264  -2.5799   0.0000  -0.3597
  -4.000  -0.0772   0.01013   0.00252  -0.0789  0.2500  0.0281  -2.2979   0.0000  -0.7962
  -3.500  -0.0211   0.00997   0.00233  -0.0788  0.2500  0.0290  -2.0242   0.0000  -3.5533
  -3.000   0.0350   0.00984   0.00216  -0.0788  0.2500  0.0295  -1.7612   0.0000   2.5378
  -2.500   0.0912   0.00971   0.00201  -0.0788  0.2500  0.0298  -1.5102   0.0000   1.1246
  -2.000   0.1474   0.00960   0.00188  -0.0787  0.2500  0.0300  -1.2714   0.0000   0.7888
  -1.500   0.2036   0.00950   0.00175  -0.0787  0.2500  0.0304  -1.0464   0.0000   0.6385
  -1.000   0.2598   0.00940   0.00164  -0.0787  0.2500  0.0323  -0.8365   0.0000   0.5531
  -0.500   0.3160   0.00932   0.00158  -0.0787  0.2500  0.0391  -0.6833   0.0000   0.4981
   0.000   0.3715   0.00910   0.00156  -0.0786  0.2500  0.0908  -0.7353   0.0000   0.4600
   0.500   0.4271   0.00893   0.00156  -0.0786  0.2500  0.1532  -0.7880   0.0000   0.4318
   1.000   0.4825   0.00874   0.00161  -0.0786  0.2500  0.2357  -0.8412   0.0000   0.4101
   1.500   0.5387   0.00877   0.00167  -0.0786  0.2500  0.2500  -0.8954   0.0000   0.3927
   2.000   0.5951   0.00885   0.00176  -0.0787  0.2500  0.2500  -0.9530   0.0000   0.3784
   2.500   0.6512   0.00894   0.00186  -0.0787  0.2500  0.2500  -1.0122   0.0000   0.3666
   3.000   0.7072   0.00904   0.00197  -0.0787  0.2500  0.2500  -1.0719   0.0000   0.3566
   3.500   0.7630   0.00914   0.00211  -0.0787  0.2500  0.2500  -1.1513   0.0000   0.3480
   4.000   0.8187   0.00925   0.00227  -0.0787  0.2500  0.2500  -1.2720   0.0000   0.3405
   4.500   0.8741   0.00938   0.00245  -0.0787  0.2500  0.2500  -1.4020   0.0000   0.3338
   5.000   0.9292   0.00951   0.00264  -0.0786  0.2500  0.2500  -1.5417   0.0000   0.3279
   5.500   0.9823   0.00980   0.00289  -0.0782  0.2346  0.2500  -1.6820   0.0000   0.3224
   6.000   1.0261   0.01082   0.00351  -0.0764  0.1572  0.2500  -1.8237   0.0000   0.3167
   7.000   1.1191   0.01235   0.00470  -0.0737  0.0860  0.2500  -2.1331   0.0000   0.3069
   7.500   1.1668   0.01295   0.00523  -0.0726  0.0688  0.2500  -2.4285   0.0000   0.3026
   8.000   1.2117   0.01372   0.00591  -0.0710  0.0501  0.2500  -2.7895   0.0000   0.2984
   8.500   1.2497   0.01495   0.00695  -0.0684  0.0182  0.2500  -3.1373   0.0000   0.2938
   9.000   1.2935   0.01564   0.00766  -0.0667  0.0122  0.2500  -3.5454   0.0000   0.2899
   9.500   1.3359   0.01632   0.00841  -0.0648  0.0108  0.2500  -3.9742   0.0000   0.2861
  10.000   1.3711   0.01712   0.00926  -0.0616  0.0094  0.2500  -4.3861   0.0000   0.2818
  10.500   1.4061   0.01809   0.01033  -0.0586  0.0081  0.2500  -4.8483   0.0000   0.2778
  11.000   1.4417   0.01900   0.01131  -0.0559  0.0078  0.2500  -5.3454   0.0000   0.2741
  11.500   1.4751   0.02004   0.01243  -0.0531  0.0073  0.2500  -5.8479   0.0000   0.2705
  12.000   1.5055   0.02128   0.01375  -0.0501  0.0066  0.2500  -6.3491   0.0000   0.2669
  12.500   1.5328   0.02277   0.01533  -0.0470  0.0059  0.2500  -6.8455   0.0000   0.2635
  13.000   1.5571   0.02453   0.01720  -0.0439  0.0054  0.2500  -7.3358   0.0000   0.2601
  13.500   1.5779   0.02665   0.01943  -0.0409  0.0048  0.2500  -7.8110   0.0000   0.2568
  14.000   1.5943   0.02927   0.02220  -0.0379  0.0043  0.2500  -8.2582   0.0000   0.2537
  14.500   1.6071   0.03236   0.02544  -0.0352  0.0041  0.2500  -8.6883   0.0000   0.2508
  15.000   1.6216   0.03549   0.02872  -0.0332  0.0040  0.2500  -9.1528   0.0000   0.2483
  15.500   1.6324   0.03913   0.03250  -0.0314  0.0039  0.2500  -9.5961   0.0000   0.2460
  16.000   1.6391   0.04341   0.03693  -0.0301  0.0038  0.2500  -10.0107   0.0000   0.2440
  16.500   1.6422   0.04840   0.04208  -0.0293  0.0037  0.2500  -10.3974   0.0000   0.2423
  17.000   1.6406   0.05418   0.04803  -0.0290  0.0036  0.2500  -10.7447   0.0000   0.2410
  17.500   1.6348   0.06088   0.05491  -0.0294  0.0035  0.2500  -11.0515   0.0000   0.2401
  18.000   1.6236   0.06857   0.06280  -0.0305  0.0034  0.2500  -11.3043   0.0000   0.2397
  18.500   1.6071   0.07735   0.07177  -0.0323  0.0033  0.2500  -11.4984   0.0000   0.2397
  19.000   1.5854   0.08723   0.08186  -0.0349  0.0032  0.2500  -11.6281   0.0000   0.2404
  19.500   1.5574   0.09837   0.09321  -0.0384  0.0031  0.2500  -11.6759   0.0000   0.2418
  20.000   1.5266   0.11036   0.10542  -0.0428  0.0031  0.2500  -11.6695   0.0000   0.2439


