xflr5 v6.42

 Calculated polar for: CLARK_Y

 1 1 Reynolds number fixed          Mach number fixed         

 xtrf =   0.250 (top)        0.250 (bottom)
 Mach =   0.000     Re =     0.300 e 6     Ncrit =   5.000

  alpha     CL        CD       CDp       Cm    Top Xtr Bot Xtr   Cpmin    Chinge    XCp    
 ------- -------- --------- --------- -------- ------- ------- -------- --------- ---------
 -10.000  -0.5990   0.04448   0.03850  -0.0826  0.2500  0.0249  -5.4627   0.0000   0.1003
  -9.500  -0.5847   0.03891   0.03249  -0.0838  0.2500  0.0257  -5.2695   0.0000   0.0956
  -9.000  -0.5579   0.03446   0.02755  -0.0837  0.2500  0.0268  -4.9896   0.0000   0.0892
  -8.500  -0.5215   0.03122   0.02384  -0.0832  0.2500  0.0285  -4.6457   0.0000   0.0799
  -8.000  -0.4819   0.02795   0.02002  -0.0825  0.2500  0.0298  -4.3447   0.0000   0.0683
  -7.500  -0.4382   0.02513   0.01669  -0.0818  0.2500  0.0307  -4.0246   0.0000   0.0530
  -7.000  -0.3900   0.02327   0.01442  -0.0811  0.2500  0.0316  -3.6720   0.0000   0.0315
  -6.500  -0.3417   0.02106   0.01179  -0.0805  0.2500  0.0325  -3.3810   0.0000   0.0037
  -6.000  -0.2925   0.01889   0.00929  -0.0798  0.2500  0.0339  -3.1021   0.0000  -0.0339
  -5.500  -0.2409   0.01763   0.00785  -0.0792  0.2500  0.0353  -2.8279   0.0000  -0.0909
  -5.000  -0.1883   0.01668   0.00674  -0.0788  0.2500  0.0367  -2.5760   0.0000  -0.1818
  -4.500  -0.1352   0.01589   0.00581  -0.0783  0.2500  0.0382  -2.3473   0.0000  -0.3455
  -4.000  -0.0817   0.01522   0.00499  -0.0779  0.2500  0.0398  -2.1209   0.0000  -0.7267
  -3.500  -0.0276   0.01471   0.00438  -0.0776  0.2500  0.0424  -1.8908   0.0000  -2.6185
  -3.000   0.0266   0.01420   0.00376  -0.0773  0.2500  0.0460  -1.6766   0.0000   3.1998
  -2.500   0.0812   0.01381   0.00335  -0.0770  0.2500  0.0544  -1.4608   0.0000   1.2102
  -2.000   0.1358   0.01347   0.00306  -0.0768  0.2500  0.0811  -1.2469   0.0000   0.8201
  -1.500   0.1903   0.01316   0.00284  -0.0766  0.2500  0.1231  -1.0499   0.0000   0.6544
  -1.000   0.2439   0.01268   0.00276  -0.0764  0.2500  0.2341  -0.8740   0.0000   0.5638
  -0.500   0.2992   0.01267   0.00268  -0.0763  0.2500  0.2500  -0.7000   0.0000   0.5041
   0.000   0.3547   0.01273   0.00265  -0.0761  0.2500  0.2500  -0.7247   0.0000   0.4630
   0.500   0.4100   0.01282   0.00267  -0.0759  0.2500  0.2500  -0.7755   0.0000   0.4329
   1.000   0.4651   0.01292   0.00273  -0.0757  0.2500  0.2500  -0.8289   0.0000   0.4100
   1.500   0.5200   0.01305   0.00283  -0.0755  0.2500  0.2500  -0.8845   0.0000   0.3919
   2.000   0.5746   0.01319   0.00297  -0.0752  0.2500  0.2500  -0.9404   0.0000   0.3772
   2.500   0.6290   0.01335   0.00314  -0.0750  0.2500  0.2500  -0.9967   0.0000   0.3649
   3.000   0.6831   0.01353   0.00337  -0.0747  0.2500  0.2500  -1.0534   0.0000   0.3546
   3.500   0.7368   0.01373   0.00362  -0.0743  0.2500  0.2500  -1.1186   0.0000   0.3456
   4.000   0.7902   0.01395   0.00393  -0.0739  0.2500  0.2500  -1.2384   0.0000   0.3378
   4.500   0.8432   0.01418   0.00426  -0.0734  0.2500  0.2500  -1.3607   0.0000   0.3309
   5.000   0.8958   0.01444   0.00463  -0.0729  0.2500  0.2500  -1.4854   0.0000   0.3247
   5.500   0.9478   0.01473   0.00507  -0.0723  0.2500  0.2500  -1.6276   0.0000   0.3191
   6.000   0.9992   0.01505   0.00553  -0.0717  0.2500  0.2500  -1.7734   0.0000   0.3139
   6.500   1.0501   0.01539   0.00607  -0.0709  0.2500  0.2500  -1.9214   0.0000   0.3091
   7.000   1.1003   0.01577   0.00664  -0.0701  0.2500  0.2500  -2.0710   0.0000   0.3047
   7.500   1.1497   0.01618   0.00728  -0.0691  0.2500  0.2500  -2.3673   0.0000   0.3004
   8.000   1.1909   0.01704   0.00805  -0.0670  0.2096  0.2500  -2.6939   0.0000   0.2959
   8.500   1.2244   0.01838   0.00913  -0.0639  0.1540  0.2500  -3.0053   0.0000   0.2912
   9.000   1.2532   0.01981   0.01042  -0.0600  0.1163  0.2500  -3.3321   0.0000   0.2862
   9.500   1.2828   0.02111   0.01171  -0.0563  0.0965  0.2500  -3.6901   0.0000   0.2815
  10.000   1.3117   0.02260   0.01324  -0.0528  0.0805  0.2500  -4.0563   0.0000   0.2772
  10.500   1.3382   0.02427   0.01492  -0.0494  0.0632  0.2500  -4.4182   0.0000   0.2730
  11.000   1.3580   0.02644   0.01705  -0.0456  0.0378  0.2500  -4.7495   0.0000   0.2689
  11.500   1.3638   0.02980   0.02031  -0.0409  0.0180  0.2500  -5.0104   0.0000   0.2644
  12.000   1.3778   0.03275   0.02349  -0.0376  0.0155  0.2500  -5.3131   0.0000   0.2609
  12.500   1.3872   0.03630   0.02727  -0.0346  0.0138  0.2500  -5.5851   0.0000   0.2576
  13.000   1.3963   0.04014   0.03138  -0.0323  0.0130  0.2500  -5.8621   0.0000   0.2548
  13.500   1.4018   0.04455   0.03606  -0.0305  0.0122  0.2500  -6.1274   0.0000   0.2525
  14.000   1.4023   0.04979   0.04157  -0.0293  0.0113  0.2500  -6.3664   0.0000   0.2506
  14.500   1.3973   0.05610   0.04813  -0.0290  0.0107  0.2500  -6.5700   0.0000   0.2494
  15.000   1.3862   0.06361   0.05595  -0.0295  0.0103  0.2500  -6.7257   0.0000   0.2489
  15.500   1.3696   0.07251   0.06512  -0.0312  0.0099  0.2500  -6.8296   0.0000   0.2493
  16.000   1.3476   0.08272   0.07560  -0.0338  0.0097  0.2500  -6.8790   0.0000   0.2505
  16.500   1.3231   0.09379   0.08693  -0.0373  0.0095  0.2500  -6.9063   0.0000   0.2526
  17.000   1.2985   0.10523   0.09861  -0.0412  0.0092  0.2500  -6.9156   0.0000   0.2551
  17.500   1.2806   0.11570   0.10929  -0.0451  0.0091  0.2500  -6.9692   0.0000   0.2575
  18.000   1.2678   0.12553   0.11934  -0.0490  0.0090  0.2500  -7.0549   0.0000   0.2599
  18.500   1.2565   0.13528   0.12931  -0.0532  0.0088  0.2500  -7.1380   0.0000   0.2625
  19.000   1.2471   0.14488   0.13911  -0.0576  0.0087  0.2500  -7.2214   0.0000   0.2653
  19.500   1.2396   0.15424   0.14867  -0.0622  0.0085  0.2500  -7.3055   0.0000   0.2682
  20.000   1.2327   0.16361   0.15824  -0.0671  0.0083  0.2500  -7.3767   0.0000   0.2713


