xflr5 v6.42

 Calculated polar for: CLARK_Y

 1 1 Reynolds number fixed          Mach number fixed         

 xtrf =   0.250 (top)        0.250 (bottom)
 Mach =   0.000     Re =     2.000 e 6     Ncrit =   5.000

  alpha     CL        CD       CDp       Cm    Top Xtr Bot Xtr   Cpmin    Chinge    XCp    
 ------- -------- --------- --------- -------- ------- ------- -------- --------- ---------
 -10.000  -0.7399   0.01395   0.00749  -0.0800  0.2500  0.0170  -7.3592   0.0000   0.1302
  -9.500  -0.6875   0.01319   0.00659  -0.0796  0.2500  0.0180  -6.7522   0.0000   0.1228
  -9.000  -0.6335   0.01267   0.00600  -0.0794  0.2500  0.0189  -6.1510   0.0000   0.1136
  -8.500  -0.5785   0.01232   0.00561  -0.0794  0.2500  0.0198  -5.5714   0.0000   0.1020
  -8.000  -0.5235   0.01192   0.00515  -0.0793  0.2500  0.0205  -5.0627   0.0000   0.0880
  -7.500  -0.4679   0.01163   0.00481  -0.0793  0.2500  0.0215  -4.5664   0.0000   0.0701
  -7.000  -0.4122   0.01130   0.00442  -0.0792  0.2500  0.0222  -4.1385   0.0000   0.0472
  -6.500  -0.3565   0.01099   0.00404  -0.0792  0.2500  0.0227  -3.7673   0.0000   0.0170
  -6.000  -0.3004   0.01072   0.00372  -0.0792  0.2500  0.0231  -3.4426   0.0000  -0.0250
  -5.500  -0.2441   0.01047   0.00342  -0.0793  0.2500  0.0233  -3.1272   0.0000  -0.0868
  -5.000  -0.1878   0.01024   0.00313  -0.0793  0.2500  0.0234  -2.8234   0.0000  -0.1860
  -4.500  -0.1316   0.00992   0.00274  -0.0793  0.2500  0.0238  -2.5429   0.0000  -0.3694
  -4.000  -0.0753   0.00963   0.00237  -0.0793  0.2500  0.0246  -2.2752   0.0000  -0.8290
  -3.500  -0.0186   0.00941   0.00211  -0.0794  0.2500  0.0256  -2.0120   0.0000  -4.1016
  -3.000   0.0382   0.00924   0.00192  -0.0795  0.2500  0.0270  -1.7554   0.0000   2.3638
  -2.500   0.0951   0.00910   0.00177  -0.0796  0.2500  0.0290  -1.5060   0.0000   1.0974
  -2.000   0.1521   0.00900   0.00166  -0.0798  0.2500  0.0310  -1.2655   0.0000   0.7789
  -1.500   0.2092   0.00893   0.00158  -0.0799  0.2500  0.0320  -1.0393   0.0000   0.6340
  -1.000   0.2662   0.00886   0.00152  -0.0801  0.2500  0.0370  -0.8568   0.0000   0.5511
  -0.500   0.3229   0.00872   0.00147  -0.0802  0.2500  0.0604  -0.6868   0.0000   0.4977
   0.000   0.3798   0.00863   0.00146  -0.0804  0.2500  0.0844  -0.7382   0.0000   0.4602
   0.500   0.4363   0.00847   0.00147  -0.0806  0.2500  0.1396  -0.7908   0.0000   0.4325
   1.000   0.4926   0.00829   0.00151  -0.0808  0.2500  0.2204  -0.8470   0.0000   0.4112
   1.500   0.5494   0.00828   0.00157  -0.0810  0.2500  0.2500  -0.9042   0.0000   0.3941
   2.000   0.6064   0.00835   0.00165  -0.0811  0.2500  0.2500  -0.9621   0.0000   0.3801
   2.500   0.6632   0.00843   0.00173  -0.0813  0.2500  0.2500  -1.0205   0.0000   0.3684
   3.000   0.7198   0.00852   0.00185  -0.0815  0.2500  0.2500  -1.0794   0.0000   0.3585
   3.500   0.7763   0.00861   0.00197  -0.0816  0.2500  0.2500  -1.1663   0.0000   0.3500
   4.000   0.8326   0.00871   0.00211  -0.0817  0.2500  0.2500  -1.2911   0.0000   0.3425
   4.500   0.8886   0.00882   0.00226  -0.0818  0.2500  0.2500  -1.4189   0.0000   0.3359
   5.000   0.9424   0.00912   0.00251  -0.0816  0.2310  0.2500  -1.5571   0.0000   0.3299
   5.500   0.9923   0.00973   0.00289  -0.0807  0.1853  0.2500  -1.7002   0.0000   0.3242
   6.000   1.0414   0.01037   0.00335  -0.0798  0.1470  0.2500  -1.8453   0.0000   0.3188
   6.500   1.0879   0.01121   0.00396  -0.0784  0.0995  0.2500  -1.9894   0.0000   0.3137
   7.000   1.1365   0.01182   0.00447  -0.0774  0.0773  0.2500  -2.1758   0.0000   0.3091
   7.500   1.1850   0.01240   0.00499  -0.0763  0.0616  0.2500  -2.5208   0.0000   0.3048
   8.000   1.2312   0.01311   0.00561  -0.0750  0.0444  0.2500  -2.8745   0.0000   0.3006
   8.500   1.2696   0.01436   0.00668  -0.0723  0.0137  0.2500  -3.2274   0.0000   0.2961
   9.000   1.3147   0.01500   0.00735  -0.0708  0.0111  0.2500  -3.6592   0.0000   0.2922
   9.500   1.3581   0.01568   0.00807  -0.0690  0.0090  0.2500  -4.1033   0.0000   0.2885
  10.000   1.4002   0.01635   0.00879  -0.0670  0.0082  0.2500  -4.5628   0.0000   0.2848
  10.500   1.4336   0.01710   0.00959  -0.0635  0.0071  0.2500  -4.9985   0.0000   0.2804
  11.000   1.4675   0.01805   0.01060  -0.0603  0.0060  0.2500  -5.4447   0.0000   0.2764
  11.500   1.5015   0.01903   0.01165  -0.0573  0.0057  0.2500  -5.9114   0.0000   0.2727
  12.000   1.5331   0.02013   0.01283  -0.0543  0.0054  0.2500  -6.3817   0.0000   0.2691
  12.500   1.5622   0.02143   0.01420  -0.0512  0.0051  0.2500  -6.8501   0.0000   0.2655
  13.000   1.5888   0.02295   0.01582  -0.0480  0.0047  0.2500  -7.3165   0.0000   0.2621
  13.500   1.6124   0.02475   0.01770  -0.0449  0.0044  0.2500  -7.7781   0.0000   0.2588
  14.000   1.6332   0.02688   0.01991  -0.0420  0.0040  0.2500  -8.2295   0.0000   0.2556
  14.500   1.6502   0.02944   0.02260  -0.0391  0.0036  0.2500  -8.6837   0.0000   0.2526
  15.000   1.6615   0.03263   0.02594  -0.0363  0.0034  0.2500  -9.1207   0.0000   0.2497
  15.500   1.6747   0.03590   0.02934  -0.0342  0.0034  0.2500  -9.5900   0.0000   0.2473
  16.000   1.6842   0.03965   0.03323  -0.0325  0.0033  0.2500  -10.0383   0.0000   0.2450
  16.500   1.6897   0.04409   0.03780  -0.0311  0.0033  0.2500  -10.4584   0.0000   0.2430
  17.000   1.6929   0.04907   0.04293  -0.0303  0.0032  0.2500  -10.8625   0.0000   0.2413
  17.500   1.6903   0.05503   0.04905  -0.0301  0.0032  0.2500  -11.2151   0.0000   0.2400
  18.000   1.6839   0.06170   0.05589  -0.0305  0.0031  0.2500  -11.5325   0.0000   0.2390
  18.500   1.6719   0.06952   0.06390  -0.0316  0.0030  0.2500  -11.7918   0.0000   0.2385
  19.000   1.6539   0.07851   0.07308  -0.0335  0.0030  0.2500  -11.9833   0.0000   0.2386
  19.500   1.6299   0.08852   0.08329  -0.0361  0.0029  0.2500  -12.1035   0.0000   0.2392
  20.000   1.6025   0.09949   0.09446  -0.0395  0.0029  0.2500  -12.1702   0.0000   0.2404


