xflr5 v6.42

 Calculated polar for: CLARK_Y

 1 1 Reynolds number fixed          Mach number fixed         

 xtrf =   0.250 (top)        0.250 (bottom)
 Mach =   0.000     Re =     0.075 e 6     Ncrit =   5.000

  alpha     CL        CD       CDp       Cm    Top Xtr Bot Xtr   Cpmin    Chinge    XCp    
 ------- -------- --------- --------- -------- ------- ------- -------- --------- ---------
  -9.500  -0.3713   0.09695   0.08806  -0.0506  0.2500  0.0572  -2.2487   0.0000   0.1016
  -9.000  -0.3690   0.08815   0.07929  -0.0547  0.2500  0.0565  -2.3190   0.0000   0.0903
  -8.500  -0.3758   0.07776   0.06897  -0.0624  0.2500  0.0564  -2.4771   0.0000   0.0734
  -8.000  -0.3890   0.06414   0.05513  -0.0737  0.2500  0.0573  -2.7763   0.0000   0.0506
  -7.500  -0.3865   0.05422   0.04459  -0.0778  0.2500  0.0578  -2.8927   0.0000   0.0393
  -7.000  -0.3674   0.04629   0.03593  -0.0788  0.2500  0.0579  -2.8755   0.0000   0.0260
  -6.500  -0.3375   0.03976   0.02861  -0.0787  0.2500  0.0585  -2.7942   0.0000   0.0072
  -6.000  -0.2988   0.03479   0.02301  -0.0781  0.2500  0.0601  -2.6440   0.0000  -0.0214
  -5.500  -0.2536   0.03174   0.01953  -0.0775  0.2500  0.0633  -2.4205   0.0000  -0.0660
  -5.000  -0.2049   0.02940   0.01670  -0.0769  0.2500  0.0689  -2.2255   0.0000  -0.1367
  -4.500  -0.1539   0.02688   0.01368  -0.0761  0.2500  0.0721  -2.0554   0.0000  -0.2576
  -4.000  -0.1020   0.02497   0.01134  -0.0752  0.2500  0.0760  -1.9169   0.0000  -0.5049
  -3.500  -0.0517   0.02315   0.00944  -0.0742  0.2500  0.0835  -1.7613   0.0000  -1.2147
  -3.000  -0.0005   0.02199   0.00817  -0.0733  0.2500  0.1019  -1.5923   0.0000  -157.9439
  -2.500   0.0508   0.02078   0.00704  -0.0725  0.2500  0.1447  -1.4261   0.0000   1.6960
  -2.000   0.1032   0.01984   0.00646  -0.0722  0.2500  0.2500  -1.2382   0.0000   0.9562
  -1.500   0.1575   0.01973   0.00588  -0.0716  0.2500  0.2500  -1.0647   0.0000   0.7073
  -1.000   0.2114   0.01974   0.00556  -0.0711  0.2500  0.2500  -0.8945   0.0000   0.5867
  -0.500   0.2651   0.01979   0.00535  -0.0705  0.2500  0.2500  -0.7270   0.0000   0.5155
   0.000   0.3185   0.01990   0.00526  -0.0700  0.2500  0.2500  -0.6986   0.0000   0.4683
   0.500   0.3716   0.02005   0.00527  -0.0695  0.2500  0.2500  -0.7472   0.0000   0.4347
   1.000   0.4244   0.02023   0.00535  -0.0689  0.2500  0.2500  -0.7971   0.0000   0.4095
   1.500   0.4769   0.02045   0.00550  -0.0683  0.2500  0.2500  -0.8501   0.0000   0.3899
   2.000   0.5290   0.02071   0.00575  -0.0677  0.2500  0.2500  -0.9033   0.0000   0.3741
   2.500   0.5806   0.02100   0.00606  -0.0670  0.2500  0.2500  -0.9568   0.0000   0.3610
   3.000   0.6318   0.02134   0.00644  -0.0662  0.2500  0.2500  -1.0107   0.0000   0.3500
   3.500   0.6825   0.02170   0.00691  -0.0654  0.2500  0.2500  -1.0697   0.0000   0.3406
   4.000   0.7326   0.02211   0.00744  -0.0645  0.2500  0.2500  -1.1622   0.0000   0.3323
   4.500   0.7821   0.02256   0.00807  -0.0636  0.2500  0.2500  -1.2774   0.0000   0.3250
   5.000   0.8310   0.02306   0.00876  -0.0626  0.2500  0.2500  -1.3944   0.0000   0.3185
   5.500   0.8791   0.02360   0.00952  -0.0614  0.2500  0.2500  -1.5129   0.0000   0.3126
   6.000   0.9265   0.02420   0.01041  -0.0602  0.2500  0.2500  -1.6432   0.0000   0.3071
   6.500   0.9731   0.02485   0.01135  -0.0589  0.2500  0.2500  -1.7787   0.0000   0.3021
   7.000   1.0188   0.02557   0.01243  -0.0575  0.2500  0.2500  -1.9151   0.0000   0.2974
   7.500   1.0636   0.02635   0.01358  -0.0560  0.2500  0.2500  -2.0519   0.0000   0.2930
   8.000   1.1076   0.02722   0.01484  -0.0544  0.2500  0.2500  -2.3395   0.0000   0.2888
   8.500   1.1507   0.02818   0.01628  -0.0526  0.2500  0.2500  -2.6608   0.0000   0.2848
   9.000   1.1928   0.02924   0.01783  -0.0508  0.2500  0.2500  -2.9895   0.0000   0.2810
   9.500   1.2349   0.03046   0.01957  -0.0489  0.2500  0.2500  -3.3324   0.0000   0.2773
  10.000   1.2710   0.03201   0.02165  -0.0463  0.2402  0.2500  -3.6956   0.0000   0.2734
  10.500   1.2849   0.03412   0.02385  -0.0414  0.2107  0.2500  -3.9803   0.0000   0.2684
  11.000   1.2933   0.03688   0.02667  -0.0369  0.1794  0.2500  -4.2431   0.0000   0.2638
  11.500   1.2985   0.04031   0.03013  -0.0330  0.1545  0.2500  -4.4913   0.0000   0.2599
  12.000   1.3038   0.04415   0.03409  -0.0298  0.1392  0.2500  -4.7343   0.0000   0.2565
  12.500   1.3055   0.04862   0.03883  -0.0274  0.1241  0.2500  -4.9567   0.0000   0.2537
  13.000   1.3023   0.05395   0.04445  -0.0259  0.1085  0.2500  -5.1484   0.0000   0.2516
  13.500   1.2909   0.06064   0.05133  -0.0254  0.0949  0.2500  -5.2876   0.0000   0.2504
  14.000   1.2735   0.06870   0.05963  -0.0261  0.0829  0.2500  -5.3775   0.0000   0.2502
  14.500   1.2575   0.07740   0.06870  -0.0276  0.0717  0.2500  -5.4472   0.0000   0.2507
  15.000   1.2310   0.08823   0.07969  -0.0308  0.0627  0.2500  -5.4413   0.0000   0.2528
  15.500   1.2107   0.09886   0.09067  -0.0342  0.0523  0.2500  -5.4350   0.0000   0.2550
  16.000   1.1867   0.11044   0.10234  -0.0385  0.0461  0.2500  -5.3955   0.0000   0.2582
  16.500   1.1689   0.12129   0.11346  -0.0425  0.0405  0.2500  -5.3674   0.0000   0.2613
  17.000   1.1513   0.13249   0.12477  -0.0474  0.0367  0.2500  -5.3369   0.0000   0.2652
  17.500   1.1372   0.14338   0.13582  -0.0523  0.0337  0.2500  -5.2973   0.0000   0.2691
  18.000   1.1224   0.15510   0.14785  -0.0579  0.0314  0.2500  -5.2097   0.0000   0.2739
  18.500   1.1042   0.16840   0.16142  -0.0648  0.0299  0.2500  -5.0391   0.0000   0.2802
  19.000   1.0658   0.18956   0.18287  -0.0760  0.0294  0.2500  -4.4809   0.0000   0.2928
  19.500   1.0302   0.21430   0.20753  -0.0884  0.0286  0.2500  -3.6769   0.0000   0.3075
  20.000   1.0295   0.22709   0.22029  -0.0949  0.0276  0.2500  -3.4615   0.0000   0.3133


