xflr5 v6.42

 Calculated polar for: clarky

 1 1 Reynolds number fixed          Mach number fixed         

 xtrf =   0.250 (top)        0.250 (bottom)
 Mach =   0.000     Re =     0.800 e 6     Ncrit =   5.000

  alpha     CL        CD       CDp       Cm    Top Xtr Bot Xtr   Cpmin    Chinge    XCp    
 ------- -------- --------- --------- -------- ------- ------- -------- --------- ---------
 -10.000  -0.6858   0.02448   0.01818  -0.0850  0.2500  0.0200  -6.7842   0.0000   0.1143
  -9.500  -0.6496   0.02103   0.01424  -0.0838  0.2500  0.0208  -6.3415   0.0000   0.1096
  -9.000  -0.6047   0.01905   0.01197  -0.0829  0.2500  0.0215  -5.8158   0.0000   0.1018
  -8.500  -0.5557   0.01778   0.01049  -0.0822  0.2500  0.0221  -5.2735   0.0000   0.0911
  -8.000  -0.5043   0.01697   0.00951  -0.0818  0.2500  0.0229  -4.7994   0.0000   0.0771
  -7.500  -0.4527   0.01610   0.00848  -0.0813  0.2500  0.0235  -4.3769   0.0000   0.0597
  -7.000  -0.4008   0.01520   0.00741  -0.0808  0.2500  0.0240  -3.9745   0.0000   0.0377
  -6.500  -0.3485   0.01437   0.00642  -0.0803  0.2500  0.0246  -3.5994   0.0000   0.0088
  -6.000  -0.2958   0.01359   0.00548  -0.0798  0.2500  0.0251  -3.2872   0.0000  -0.0310
  -5.500  -0.2424   0.01297   0.00473  -0.0793  0.2500  0.0260  -3.0276   0.0000  -0.0894
  -5.000  -0.1882   0.01249   0.00415  -0.0790  0.2500  0.0275  -2.7692   0.0000  -0.1833
  -4.500  -0.1334   0.01217   0.00373  -0.0787  0.2500  0.0289  -2.5012   0.0000  -0.3569
  -4.000  -0.0782   0.01192   0.00342  -0.0786  0.2500  0.0297  -2.2311   0.0000  -0.7782
  -3.500  -0.0231   0.01166   0.00310  -0.0784  0.2500  0.0303  -1.9732   0.0000  -3.2070
  -3.000   0.0318   0.01132   0.00268  -0.0781  0.2500  0.0320  -1.7371   0.0000   2.7480
  -2.500   0.0871   0.01109   0.00240  -0.0779  0.2500  0.0335  -1.5013   0.0000   1.1556
  -2.000   0.1426   0.01092   0.00220  -0.0778  0.2500  0.0352  -1.2719   0.0000   0.8000
  -1.500   0.1982   0.01079   0.00205  -0.0776  0.2500  0.0376  -1.0516   0.0000   0.6435
  -1.000   0.2534   0.01059   0.00194  -0.0775  0.2500  0.0593  -0.8427   0.0000   0.5560
  -0.500   0.3086   0.01039   0.00188  -0.0774  0.2500  0.1023  -0.6790   0.0000   0.4999
   0.000   0.3632   0.01010   0.00187  -0.0772  0.2500  0.1898  -0.7305   0.0000   0.4611
   0.500   0.4183   0.00998   0.00190  -0.0771  0.2500  0.2500  -0.7829   0.0000   0.4322
   1.000   0.4743   0.01005   0.00195  -0.0771  0.2500  0.2500  -0.8363   0.0000   0.4097
   1.500   0.5301   0.01014   0.00202  -0.0770  0.2500  0.2500  -0.8902   0.0000   0.3920
   2.000   0.5857   0.01024   0.00212  -0.0769  0.2500  0.2500  -0.9468   0.0000   0.3775
   2.500   0.6412   0.01035   0.00225  -0.0768  0.2500  0.2500  -1.0054   0.0000   0.3656
   3.000   0.6965   0.01047   0.00240  -0.0767  0.2500  0.2500  -1.0645   0.0000   0.3554
   3.500   0.7515   0.01060   0.00257  -0.0766  0.2500  0.2500  -1.1378   0.0000   0.3467
   4.000   0.8063   0.01074   0.00277  -0.0764  0.2500  0.2500  -1.2571   0.0000   0.3391
   4.500   0.8608   0.01090   0.00299  -0.0762  0.2500  0.2500  -1.3840   0.0000   0.3323
   5.000   0.9150   0.01107   0.00325  -0.0759  0.2500  0.2500  -1.5217   0.0000   0.3263
   5.500   0.9688   0.01125   0.00352  -0.0757  0.2500  0.2500  -1.6624   0.0000   0.3209
   6.000   1.0222   0.01145   0.00382  -0.0753  0.2500  0.2500  -1.8131   0.0000   0.3159
   6.500   1.0695   0.01212   0.00432  -0.0741  0.2054  0.2500  -1.9669   0.0000   0.3109
   7.000   1.1112   0.01320   0.00508  -0.0721  0.1452  0.2500  -2.1143   0.0000   0.3059
   7.500   1.1532   0.01420   0.00588  -0.0701  0.1046  0.2500  -2.3725   0.0000   0.3012
   8.000   1.1962   0.01507   0.00666  -0.0683  0.0798  0.2500  -2.7224   0.0000   0.2968
   8.500   1.2387   0.01588   0.00743  -0.0664  0.0641  0.2500  -3.0869   0.0000   0.2926
   9.000   1.2768   0.01691   0.00836  -0.0639  0.0446  0.2500  -3.4690   0.0000   0.2884
   9.500   1.3015   0.01843   0.00972  -0.0591  0.0171  0.2500  -3.8062   0.0000   0.2831
  10.000   1.3365   0.01947   0.01084  -0.0562  0.0122  0.2500  -4.1939   0.0000   0.2790
  10.500   1.3709   0.02052   0.01205  -0.0535  0.0113  0.2500  -4.6212   0.0000   0.2751
  11.000   1.4017   0.02181   0.01347  -0.0504  0.0102  0.2500  -5.0713   0.0000   0.2713
  11.500   1.4280   0.02341   0.01520  -0.0471  0.0093  0.2500  -5.5109   0.0000   0.2675
  12.000   1.4482   0.02553   0.01748  -0.0434  0.0081  0.2500  -5.9164   0.0000   0.2636
  12.500   1.4725   0.02745   0.01953  -0.0407  0.0079  0.2500  -6.3729   0.0000   0.2604
  13.000   1.4934   0.02973   0.02197  -0.0380  0.0075  0.2500  -6.8196   0.0000   0.2573
  13.500   1.5112   0.03242   0.02482  -0.0356  0.0070  0.2500  -7.2555   0.0000   0.2544
  14.000   1.5252   0.03560   0.02817  -0.0333  0.0066  0.2500  -7.6728   0.0000   0.2518
  14.500   1.5352   0.03936   0.03210  -0.0315  0.0062  0.2500  -8.0680   0.0000   0.2494
  15.000   1.5403   0.04382   0.03674  -0.0300  0.0058  0.2500  -8.4302   0.0000   0.2473
  15.500   1.5414   0.04906   0.04217  -0.0291  0.0055  0.2500  -8.7626   0.0000   0.2456
  16.000   1.5376   0.05521   0.04852  -0.0289  0.0053  0.2500  -9.0545   0.0000   0.2444
  16.500   1.5286   0.06248   0.05601  -0.0295  0.0050  0.2500  -9.2967   0.0000   0.2437
  17.000   1.5121   0.07118   0.06494  -0.0311  0.0048  0.2500  -9.4633   0.0000   0.2438
  17.500   1.4892   0.08131   0.07532  -0.0336  0.0046  0.2500  -9.5561   0.0000   0.2446
  18.000   1.4598   0.09286   0.08713  -0.0371  0.0045  0.2500  -9.5692   0.0000   0.2463
  18.500   1.4274   0.10538   0.09991  -0.0415  0.0044  0.2500  -9.5261   0.0000   0.2488
  19.000   1.3930   0.11857   0.11334  -0.0466  0.0043  0.2500  -9.4333   0.0000   0.2521
  19.500   1.3604   0.13180   0.12680  -0.0524  0.0042  0.2500  -9.3225   0.0000   0.2560
  20.000   1.3295   0.14524   0.14045  -0.0588  0.0041  0.2500  -9.1865   0.0000   0.2607


