xflr5 v6.42

 Calculated polar for: clarky

 1 1 Reynolds number fixed          Mach number fixed         

 xtrf =   0.250 (top)        0.250 (bottom)
 Mach =   0.000     Re =     0.005 e 6     Ncrit =   5.000

  alpha     CL        CD       CDp       Cm    Top Xtr Bot Xtr   Cpmin    Chinge    XCp    
 ------- -------- --------- --------- -------- ------- ------- -------- --------- ---------
 -10.000  -0.3818   0.14755   0.12296  -0.0276  0.2500  0.2500  -1.5952   0.0000   0.1659
  -9.500  -0.3759   0.14124   0.11681  -0.0291  0.2500  0.2500  -1.6082   0.0000   0.1611
  -9.000  -0.3714   0.13496   0.11071  -0.0305  0.2500  0.2500  -1.6219   0.0000   0.1571
  -8.500  -0.3688   0.12875   0.10470  -0.0316  0.2500  0.2500  -1.6372   0.0000   0.1540
  -8.000  -0.3676   0.12255   0.09872  -0.0328  0.2500  0.2500  -1.6543   0.0000   0.1513
  -7.500  -0.3657   0.11616   0.09253  -0.0340  0.2500  0.2500  -1.6701   0.0000   0.1479
  -7.000  -0.3633   0.10970   0.08621  -0.0353  0.2500  0.2500  -1.6839   0.0000   0.1444
  -6.500  -0.3594   0.10317   0.07974  -0.0365  0.2500  0.2500  -1.7140   0.0000   0.1404
  -6.000  -0.3526   0.09659   0.07309  -0.0379  0.2500  0.2500  -1.7398   0.0000   0.1351
  -5.500  -0.3412   0.09005   0.06629  -0.0392  0.2500  0.2500  -1.7556   0.0000   0.1278
  -5.000  -0.3233   0.08363   0.05925  -0.0407  0.2500  0.2500  -1.7568   0.0000   0.1170
  -4.500  -0.2976   0.07753   0.05246  -0.0423  0.2500  0.2500  -1.7375   0.0000   0.1009
  -4.000  -0.2632   0.07194   0.04602  -0.0438  0.2500  0.2500  -1.7160   0.0000   0.0761
  -3.500  -0.2229   0.06722   0.04038  -0.0449  0.2500  0.2500  -1.6683   0.0000   0.0405
  -3.000  -0.1811   0.06371   0.03593  -0.0451  0.2500  0.2500  -1.5874   0.0000  -0.0078
  -2.500  -0.1400   0.06141   0.03251  -0.0445  0.2500  0.2500  -1.4785   0.0000  -0.0777
  -2.000  -0.0997   0.06003   0.03009  -0.0435  0.2500  0.2500  -1.3512   0.0000  -0.1980
  -1.500  -0.0603   0.05930   0.02836  -0.0424  0.2500  0.2500  -1.2137   0.0000  -0.4680
  -1.000  -0.0214   0.05898   0.02713  -0.0412  0.2500  0.2500  -1.0792   0.0000  -1.7090
  -0.500   0.0172   0.05901   0.02627  -0.0401  0.2500  0.2500  -0.9632   0.0000   2.6050
   0.000   0.0556   0.05936   0.02587  -0.0391  0.2500  0.2500  -0.8464   0.0000   0.9559
   0.500   0.0935   0.05999   0.02580  -0.0381  0.2500  0.2500  -0.7305   0.0000   0.6565
   1.000   0.1308   0.06088   0.02608  -0.0372  0.2500  0.2500  -0.6168   0.0000   0.5316
   1.500   0.1675   0.06203   0.02673  -0.0364  0.2500  0.2500  -0.5810   0.0000   0.4636
   2.000   0.2034   0.06342   0.02772  -0.0358  0.2500  0.2500  -0.6081   0.0000   0.4212
   2.500   0.2384   0.06506   0.02900  -0.0352  0.2500  0.2500  -0.6367   0.0000   0.3925
   3.000   0.2725   0.06695   0.03062  -0.0349  0.2500  0.2500  -0.6638   0.0000   0.3721
   3.500   0.3047   0.06908   0.03252  -0.0344  0.2500  0.2500  -0.6910   0.0000   0.3566
   4.000   0.3359   0.07145   0.03475  -0.0341  0.2500  0.2500  -0.7184   0.0000   0.3447
   4.500   0.3662   0.07404   0.03728  -0.0339  0.2500  0.2500  -0.7480   0.0000   0.3352
   5.000   0.3957   0.07686   0.04011  -0.0337  0.2500  0.2500  -0.7809   0.0000   0.3276
   5.500   0.4245   0.07990   0.04324  -0.0338  0.2500  0.2500  -0.8168   0.0000   0.3214
   6.000   0.4527   0.08316   0.04660  -0.0339  0.2500  0.2500  -0.8647   0.0000   0.3162
   6.500   0.4803   0.08661   0.05020  -0.0341  0.2500  0.2500  -0.9173   0.0000   0.3119
   7.000   0.5074   0.09024   0.05410  -0.0344  0.2500  0.2500  -0.9688   0.0000   0.3082
   7.500   0.5342   0.09405   0.05816  -0.0348  0.2500  0.2500  -1.0249   0.0000   0.3050
   8.000   0.5609   0.09806   0.06245  -0.0352  0.2500  0.2500  -1.0798   0.0000   0.3023
   9.000   0.6137   0.10662   0.07191  -0.0365  0.2500  0.2500  -1.1888   0.0000   0.2979
   9.500   0.6396   0.11113   0.07686  -0.0373  0.2500  0.2500  -1.2466   0.0000   0.2961
  10.000   0.6648   0.11584   0.08205  -0.0381  0.2500  0.2500  -1.3011   0.0000   0.2946
  10.500   0.6893   0.12085   0.08757  -0.0392  0.2500  0.2500  -1.3515   0.0000   0.2935
  11.000   0.7130   0.12620   0.09347  -0.0404  0.2500  0.2500  -1.3964   0.0000   0.2928
  11.500   0.7359   0.13196   0.10004  -0.0420  0.2500  0.2500  -1.4474   0.0000   0.2926
  12.000   0.7577   0.13817   0.10684  -0.0438  0.2500  0.2500  -1.5359   0.0000   0.2927
  12.500   0.7783   0.14486   0.11411  -0.0459  0.2500  0.2500  -1.6442   0.0000   0.2933
  13.000   0.7979   0.15201   0.12183  -0.0483  0.2500  0.2500  -1.7575   0.0000   0.2944
  13.500   0.8164   0.15959   0.12995  -0.0511  0.2500  0.2500  -1.8614   0.0000   0.2957
  14.000   0.8339   0.16760   0.13870  -0.0541  0.2500  0.2500  -1.9545   0.0000   0.2974
  14.500   0.8503   0.17595   0.14754  -0.0573  0.2500  0.2500  -2.0361   0.0000   0.2993
  15.000   0.8655   0.18451   0.15655  -0.0607  0.2500  0.2500  -2.1056   0.0000   0.3014
  15.500   0.8798   0.19317   0.16563  -0.0643  0.2500  0.2500  -2.1738   0.0000   0.3037
  16.000   0.8931   0.20175   0.17461  -0.0681  0.2500  0.2500  -2.2309   0.0000   0.3062
  16.500   0.9061   0.21028   0.18352  -0.0720  0.2500  0.2500  -2.2781   0.0000   0.3087
  17.000   0.9189   0.21876   0.19235  -0.0760  0.2500  0.2500  -2.3156   0.0000   0.3112
  17.500   0.9316   0.22719   0.20111  -0.0801  0.2500  0.2500  -2.3431   0.0000   0.3137
  18.000   0.9443   0.23556   0.20978  -0.0843  0.2500  0.2500  -2.3682   0.0000   0.3163
  18.500   0.9570   0.24384   0.21834  -0.0886  0.2500  0.2500  -2.3839   0.0000   0.3188
  19.000   0.9699   0.25203   0.22678  -0.0930  0.2500  0.2500  -2.3899   0.0000   0.3212
  19.500   0.9830   0.26013   0.23543  -0.0975  0.2500  0.2500  -2.3867   0.0000   0.3236
  20.000   0.9964   0.26818   0.24369  -0.1020  0.2500  0.2500  -2.3767   0.0000   0.3260


