xflr5 v6.42

 Calculated polar for: clarky

 1 1 Reynolds number fixed          Mach number fixed         

 xtrf =   0.250 (top)        0.250 (bottom)
 Mach =   0.000     Re =     0.075 e 6     Ncrit =   5.000

  alpha     CL        CD       CDp       Cm    Top Xtr Bot Xtr   Cpmin    Chinge    XCp    
 ------- -------- --------- --------- -------- ------- ------- -------- --------- ---------
 -10.000  -0.3724   0.10629   0.09743  -0.0489  0.2500  0.0600  -2.1909   0.0000   0.1061
  -9.500  -0.3624   0.09783   0.08896  -0.0498  0.2500  0.0583  -2.1590   0.0000   0.1003
  -9.000  -0.3591   0.08933   0.08050  -0.0537  0.2500  0.0574  -2.2075   0.0000   0.0889
  -8.500  -0.3635   0.07937   0.07060  -0.0610  0.2500  0.0577  -2.3400   0.0000   0.0715
  -8.000  -0.3747   0.06649   0.05759  -0.0724  0.2500  0.0586  -2.5945   0.0000   0.0467
  -7.500  -0.3739   0.05618   0.04685  -0.0773  0.2500  0.0585  -2.7272   0.0000   0.0337
  -7.000  -0.3594   0.04761   0.03764  -0.0790  0.2500  0.0579  -2.7609   0.0000   0.0207
  -6.500  -0.3324   0.04077   0.02993  -0.0791  0.2500  0.0580  -2.7120   0.0000   0.0025
  -6.000  -0.2954   0.03567   0.02396  -0.0783  0.2500  0.0588  -2.5858   0.0000  -0.0250
  -5.500  -0.2517   0.03174   0.01927  -0.0773  0.2500  0.0604  -2.4477   0.0000  -0.0679
  -5.000  -0.2050   0.02847   0.01554  -0.0765  0.2500  0.0636  -2.2772   0.0000  -0.1351
  -4.500  -0.1552   0.02640   0.01318  -0.0757  0.2500  0.0678  -2.0862   0.0000  -0.2514
  -4.000  -0.1040   0.02506   0.01149  -0.0749  0.2500  0.0774  -1.9142   0.0000  -0.4879
  -3.500  -0.0536   0.02335   0.00962  -0.0739  0.2500  0.0838  -1.7615   0.0000  -1.1576
  -3.000  -0.0031   0.02207   0.00820  -0.0727  0.2500  0.0957  -1.6017   0.0000  -23.7592
  -2.500   0.0476   0.02084   0.00705  -0.0718  0.2500  0.1288  -1.4413   0.0000   1.7787
  -2.000   0.0996   0.01986   0.00645  -0.0714  0.2500  0.2333  -1.2564   0.0000   0.9739
  -1.500   0.1531   0.01967   0.00589  -0.0707  0.2500  0.2500  -1.0618   0.0000   0.7144
  -1.000   0.2067   0.01967   0.00555  -0.0701  0.2500  0.2500  -0.8718   0.0000   0.5896
  -0.500   0.2600   0.01973   0.00534  -0.0695  0.2500  0.2500  -0.7183   0.0000   0.5165
   0.000   0.3131   0.01984   0.00525  -0.0689  0.2500  0.2500  -0.6952   0.0000   0.4684
   0.500   0.3659   0.01998   0.00525  -0.0683  0.2500  0.2500  -0.7450   0.0000   0.4343
   1.000   0.4184   0.02016   0.00532  -0.0676  0.2500  0.2500  -0.7952   0.0000   0.4088
   1.500   0.4706   0.02038   0.00548  -0.0670  0.2500  0.2500  -0.8456   0.0000   0.3889
   2.000   0.5224   0.02064   0.00571  -0.0663  0.2500  0.2500  -0.8978   0.0000   0.3730
   2.500   0.5738   0.02093   0.00602  -0.0655  0.2500  0.2500  -0.9523   0.0000   0.3598
   3.000   0.6248   0.02125   0.00641  -0.0647  0.2500  0.2500  -1.0070   0.0000   0.3488
   3.500   0.6752   0.02162   0.00686  -0.0639  0.2500  0.2500  -1.0651   0.0000   0.3393
   4.000   0.7251   0.02203   0.00741  -0.0630  0.2500  0.2500  -1.1552   0.0000   0.3310
   4.500   0.7744   0.02247   0.00801  -0.0620  0.2500  0.2500  -1.2675   0.0000   0.3237
   5.000   0.8231   0.02297   0.00868  -0.0609  0.2500  0.2500  -1.3833   0.0000   0.3172
   5.500   0.8711   0.02351   0.00948  -0.0598  0.2500  0.2500  -1.5099   0.0000   0.3113
   6.000   0.9184   0.02410   0.01032  -0.0586  0.2500  0.2500  -1.6380   0.0000   0.3059
   6.500   0.9648   0.02474   0.01125  -0.0572  0.2500  0.2500  -1.7671   0.0000   0.3009
   7.000   1.0105   0.02546   0.01235  -0.0558  0.2500  0.2500  -1.8969   0.0000   0.2962
   7.500   1.0553   0.02624   0.01349  -0.0543  0.2500  0.2500  -2.0355   0.0000   0.2918
   8.000   1.0992   0.02709   0.01474  -0.0527  0.2500  0.2500  -2.2893   0.0000   0.2876
   8.500   1.1421   0.02804   0.01619  -0.0510  0.2500  0.2500  -2.6140   0.0000   0.2837
   9.000   1.1839   0.02910   0.01771  -0.0491  0.2500  0.2500  -2.9562   0.0000   0.2798
   9.500   1.2258   0.03030   0.01943  -0.0472  0.2500  0.2500  -3.3221   0.0000   0.2762
  10.000   1.2631   0.03184   0.02138  -0.0448  0.2425  0.2500  -3.6870   0.0000   0.2724
  10.500   1.2769   0.03394   0.02365  -0.0400  0.2091  0.2500  -3.9682   0.0000   0.2675
  11.000   1.2841   0.03677   0.02641  -0.0355  0.1794  0.2500  -4.2241   0.0000   0.2630
  11.500   1.2916   0.04011   0.02995  -0.0319  0.1559  0.2500  -4.4780   0.0000   0.2592
  12.000   1.2954   0.04407   0.03401  -0.0288  0.1380  0.2500  -4.7124   0.0000   0.2558
  12.500   1.2966   0.04861   0.03877  -0.0265  0.1223  0.2500  -4.9300   0.0000   0.2531
  13.000   1.2948   0.05387   0.04432  -0.0251  0.1075  0.2500  -5.1336   0.0000   0.2511
  13.500   1.2863   0.06022   0.05090  -0.0244  0.0967  0.2500  -5.3063   0.0000   0.2497
  14.000   1.2728   0.06782   0.05882  -0.0249  0.0847  0.2500  -5.4342   0.0000   0.2493
  14.500   1.2549   0.07663   0.06792  -0.0265  0.0741  0.2500  -5.5139   0.0000   0.2498
  15.000   1.2313   0.08711   0.07867  -0.0295  0.0629  0.2500  -5.5358   0.0000   0.2517
  15.500   1.2067   0.09833   0.09011  -0.0333  0.0532  0.2500  -5.5263   0.0000   0.2544
  16.000   1.1843   0.10974   0.10170  -0.0376  0.0457  0.2500  -5.5107   0.0000   0.2576
  16.500   1.1628   0.12132   0.11337  -0.0424  0.0406  0.2500  -5.4883   0.0000   0.2614
  17.000   1.1483   0.13193   0.12421  -0.0467  0.0365  0.2500  -5.4792   0.0000   0.2647
  17.500   1.1355   0.14259   0.13510  -0.0514  0.0338  0.2500  -5.4598   0.0000   0.2684
  18.000   1.1241   0.15334   0.14602  -0.0566  0.0319  0.2500  -5.4305   0.0000   0.2727
  18.500   1.1167   0.16342   0.15628  -0.0618  0.0302  0.2500  -5.4160   0.0000   0.2766
  19.000   1.0966   0.17825   0.17140  -0.0698  0.0296  0.2500  -5.1504   0.0000   0.2844
  19.500   1.0521   0.20389   0.19717  -0.0839  0.0294  0.2500  -4.2964   0.0000   0.3008
  20.000   1.0331   0.22505   0.21821  -0.0948  0.0290  0.2500  -3.6021   0.0000   0.3129


