xflr5 v6.42

 Calculated polar for: CLARK_Y

 1 1 Reynolds number fixed          Mach number fixed         

 xtrf =   0.250 (top)        0.250 (bottom)
 Mach =   0.000     Re =     0.150 e 6     Ncrit =   5.000

  alpha     CL        CD       CDp       Cm    Top Xtr Bot Xtr   Cpmin    Chinge    XCp    
 ------- -------- --------- --------- -------- ------- ------- -------- --------- ---------
 -10.000  -0.3819   0.09782   0.09076  -0.0444  0.2500  0.0351  -2.3828   0.0000   0.1208
  -9.500  -0.3776   0.09029   0.08325  -0.0483  0.2500  0.0370  -2.3960   0.0000   0.1097
  -9.000  -0.3827   0.08039   0.07341  -0.0548  0.2500  0.0385  -2.5514   0.0000   0.0951
  -8.500  -0.4067   0.06483   0.05790  -0.0695  0.2500  0.0383  -2.9474   0.0000   0.0687
  -8.000  -0.4337   0.04496   0.03725  -0.0816  0.2500  0.0384  -3.5151   0.0000   0.0517
  -7.500  -0.4146   0.03677   0.02816  -0.0824  0.2500  0.0396  -3.5109   0.0000   0.0413
  -7.000  -0.3779   0.03219   0.02278  -0.0818  0.2500  0.0418  -3.3185   0.0000   0.0234
  -6.500  -0.3353   0.02842   0.01827  -0.0810  0.2500  0.0426  -3.1181   0.0000  -0.0021
  -6.000  -0.2877   0.02573   0.01500  -0.0803  0.2500  0.0434  -2.8793   0.0000  -0.0399
  -5.500  -0.2395   0.02277   0.01165  -0.0795  0.2500  0.0453  -2.6689   0.0000  -0.0939
  -5.000  -0.1885   0.02114   0.00978  -0.0789  0.2500  0.0473  -2.4278   0.0000  -0.1819
  -4.500  -0.1364   0.02006   0.00855  -0.0784  0.2500  0.0509  -2.2072   0.0000  -0.3406
  -4.000  -0.0840   0.01902   0.00733  -0.0778  0.2500  0.0546  -2.0106   0.0000  -0.6980
  -3.500  -0.0315   0.01810   0.00623  -0.0771  0.2500  0.0578  -1.8220   0.0000  -2.2468
  -3.000   0.0208   0.01720   0.00529  -0.0765  0.2500  0.0665  -1.6317   0.0000   3.9922
  -2.500   0.0740   0.01656   0.00460  -0.0760  0.2500  0.0881  -1.4376   0.0000   1.2907
  -2.000   0.1267   0.01592   0.00418  -0.0756  0.2500  0.1507  -1.2351   0.0000   0.8523
  -1.500   0.1793   0.01540   0.00394  -0.0752  0.2500  0.2500  -1.0510   0.0000   0.6718
  -1.000   0.2341   0.01540   0.00371  -0.0748  0.2500  0.2500  -0.8767   0.0000   0.5701
  -0.500   0.2887   0.01544   0.00357  -0.0745  0.2500  0.2500  -0.7056   0.0000   0.5072
   0.000   0.3432   0.01551   0.00351  -0.0741  0.2500  0.2500  -0.7167   0.0000   0.4643
   0.500   0.3975   0.01562   0.00352  -0.0737  0.2500  0.2500  -0.7666   0.0000   0.4332
   1.000   0.4515   0.01575   0.00358  -0.0733  0.2500  0.2500  -0.8186   0.0000   0.4096
   1.500   0.5053   0.01590   0.00370  -0.0729  0.2500  0.2500  -0.8731   0.0000   0.3909
   2.000   0.5589   0.01608   0.00388  -0.0725  0.2500  0.2500  -0.9280   0.0000   0.3758
   2.500   0.6121   0.01629   0.00410  -0.0720  0.2500  0.2500  -0.9833   0.0000   0.3633
   3.000   0.6649   0.01653   0.00439  -0.0714  0.2500  0.2500  -1.0387   0.0000   0.3527
   3.500   0.7174   0.01679   0.00471  -0.0709  0.2500  0.2500  -1.1006   0.0000   0.3435
   4.000   0.7695   0.01707   0.00509  -0.0702  0.2500  0.2500  -1.2115   0.0000   0.3355
   4.500   0.8210   0.01739   0.00555  -0.0695  0.2500  0.2500  -1.3310   0.0000   0.3284
   5.000   0.8719   0.01774   0.00604  -0.0687  0.2500  0.2500  -1.4527   0.0000   0.3221
   5.500   0.9223   0.01813   0.00662  -0.0679  0.2500  0.2500  -1.5838   0.0000   0.3163
   6.000   0.9721   0.01855   0.00723  -0.0669  0.2500  0.2500  -1.7251   0.0000   0.3110
   6.500   1.0213   0.01902   0.00791  -0.0659  0.2500  0.2500  -1.8681   0.0000   0.3061
   7.000   1.0698   0.01953   0.00870  -0.0648  0.2500  0.2500  -2.0126   0.0000   0.3016
   7.500   1.1175   0.02010   0.00954  -0.0636  0.2500  0.2500  -2.2374   0.0000   0.2973
   8.000   1.1643   0.02072   0.01050  -0.0623  0.2500  0.2500  -2.5723   0.0000   0.2932
   8.500   1.2103   0.02142   0.01154  -0.0608  0.2500  0.2500  -2.9174   0.0000   0.2893
   9.000   1.2477   0.02239   0.01265  -0.0582  0.2229  0.2500  -3.2535   0.0000   0.2850
   9.500   1.2685   0.02397   0.01402  -0.0533  0.1721  0.2500  -3.5704   0.0000   0.2796
  10.000   1.2896   0.02592   0.01591  -0.0490  0.1403  0.2500  -3.8931   0.0000   0.2749
  10.500   1.3107   0.02800   0.01803  -0.0451  0.1173  0.2500  -4.2213   0.0000   0.2705
  11.500   1.3483   0.03273   0.02300  -0.0381  0.0866  0.2500  -4.8673   0.0000   0.2627
  12.000   1.3630   0.03562   0.02607  -0.0351  0.0703  0.2500  -5.1686   0.0000   0.2593
  12.500   1.3675   0.03958   0.03001  -0.0321  0.0446  0.2500  -5.4130   0.0000   0.2561
  13.500   1.3559   0.05057   0.04114  -0.0277  0.0225  0.2500  -5.7680   0.0000   0.2511
  14.000   1.3467   0.05714   0.04797  -0.0269  0.0204  0.2500  -5.9138   0.0000   0.2497
  14.500   1.3314   0.06502   0.05616  -0.0272  0.0191  0.2500  -6.0091   0.0000   0.2491
  15.000   1.3166   0.07355   0.06502  -0.0286  0.0185  0.2500  -6.0979   0.0000   0.2494
  15.500   1.2983   0.08314   0.07496  -0.0311  0.0180  0.2500  -6.1526   0.0000   0.2505
  16.000   1.2777   0.09363   0.08578  -0.0344  0.0176  0.2500  -6.1766   0.0000   0.2524
  16.500   1.2564   0.10472   0.09722  -0.0384  0.0172  0.2500  -6.1772   0.0000   0.2551
  17.000   1.2360   0.11591   0.10870  -0.0428  0.0168  0.2500  -6.1672   0.0000   0.2581
  17.500   1.2181   0.12693   0.11998  -0.0474  0.0164  0.2500  -6.1706   0.0000   0.2615
  18.000   1.2027   0.13776   0.13105  -0.0523  0.0158  0.2500  -6.1889   0.0000   0.2651
  18.500   1.1896   0.14845   0.14195  -0.0575  0.0153  0.2500  -6.2081   0.0000   0.2689
  19.000   1.1786   0.15887   0.15255  -0.0628  0.0147  0.2500  -6.2294   0.0000   0.2729
  19.500   1.1716   0.16848   0.16230  -0.0679  0.0140  0.2500  -6.2719   0.0000   0.2765
  20.000   1.1675   0.17759   0.17158  -0.0727  0.0134  0.2500  -6.3067   0.0000   0.2798


