xflr5 v6.42

 Calculated polar for: clarky

 1 1 Reynolds number fixed          Mach number fixed         

 xtrf =   0.250 (top)        0.250 (bottom)
 Mach =   0.000     Re =     0.040 e 6     Ncrit =   5.000

  alpha     CL        CD       CDp       Cm    Top Xtr Bot Xtr   Cpmin    Chinge    XCp    
 ------- -------- --------- --------- -------- ------- ------- -------- --------- ---------
 -10.000  -0.3392   0.12189   0.11079  -0.0334  0.2500  0.1707  -1.4454   0.0000   0.1392
  -9.000  -0.3478   0.10126   0.09019  -0.0481  0.2500  0.0973  -1.8395   0.0000   0.1006
  -8.500  -0.3391   0.09349   0.08244  -0.0506  0.2500  0.0935  -1.8388   0.0000   0.0899
  -8.000  -0.3412   0.08503   0.07406  -0.0556  0.2500  0.0902  -1.9291   0.0000   0.0770
  -7.500  -0.3449   0.07464   0.06365  -0.0637  0.2500  0.0869  -2.0842   0.0000   0.0562
  -7.000  -0.3458   0.06364   0.05232  -0.0704  0.2500  0.0844  -2.2555   0.0000   0.0375
  -6.500  -0.3322   0.05464   0.04269  -0.0735  0.2500  0.0837  -2.3198   0.0000   0.0200
  -6.000  -0.3044   0.04791   0.03527  -0.0742  0.2500  0.0849  -2.2662   0.0000  -0.0025
  -5.500  -0.2680   0.04260   0.02923  -0.0740  0.2500  0.0879  -2.1713   0.0000  -0.0352
  -5.000  -0.2257   0.03867   0.02434  -0.0734  0.2500  0.0981  -2.0662   0.0000  -0.0853
  -4.500  -0.1792   0.03505   0.02016  -0.0726  0.2500  0.1041  -1.9293   0.0000  -0.1663
  -4.000  -0.1288   0.03224   0.01685  -0.0717  0.2500  0.1109  -1.8076   0.0000  -0.3202
  -3.500  -0.0743   0.02987   0.01395  -0.0709  0.2500  0.1223  -1.6921   0.0000  -0.7245
  -3.000  -0.0235   0.02803   0.01194  -0.0699  0.2500  0.1468  -1.5561   0.0000  -2.7785
  -2.500   0.0248   0.02647   0.01070  -0.0689  0.2500  0.2241  -1.4066   0.0000   3.0724
  -2.000   0.0753   0.02535   0.00920  -0.0675  0.2500  0.2500  -1.2591   0.0000   1.1556
  -1.500   0.1265   0.02516   0.00844  -0.0664  0.2500  0.2500  -1.0749   0.0000   0.7786
  -1.000   0.1773   0.02513   0.00798  -0.0654  0.2500  0.2500  -0.8992   0.0000   0.6197
  -0.500   0.2280   0.02520   0.00771  -0.0644  0.2500  0.2500  -0.7514   0.0000   0.5321
   0.000   0.2783   0.02533   0.00757  -0.0635  0.2500  0.2500  -0.6694   0.0000   0.4765
   0.500   0.3283   0.02553   0.00758  -0.0625  0.2500  0.2500  -0.7165   0.0000   0.4381
   1.000   0.3779   0.02580   0.00771  -0.0616  0.2500  0.2500  -0.7638   0.0000   0.4099
   1.500   0.4270   0.02612   0.00794  -0.0605  0.2500  0.2500  -0.8111   0.0000   0.3882
   2.000   0.4756   0.02650   0.00828  -0.0595  0.2500  0.2500  -0.8597   0.0000   0.3709
   2.500   0.5237   0.02694   0.00873  -0.0584  0.2500  0.2500  -0.9106   0.0000   0.3569
   3.000   0.5715   0.02744   0.00930  -0.0573  0.2500  0.2500  -0.9617   0.0000   0.3452
   3.500   0.6186   0.02801   0.00999  -0.0561  0.2500  0.2500  -1.0156   0.0000   0.3352
   4.000   0.6650   0.02864   0.01077  -0.0549  0.2500  0.2500  -1.0801   0.0000   0.3266
   4.500   0.7105   0.02934   0.01169  -0.0536  0.2500  0.2500  -1.1819   0.0000   0.3190
   5.000   0.7551   0.03012   0.01269  -0.0522  0.2500  0.2500  -1.2875   0.0000   0.3122
   5.500   0.7987   0.03098   0.01390  -0.0508  0.2500  0.2500  -1.3952   0.0000   0.3061
   6.000   0.8412   0.03194   0.01516  -0.0493  0.2500  0.2500  -1.5119   0.0000   0.3005
   6.500   0.8818   0.03298   0.01655  -0.0475  0.2500  0.2500  -1.6276   0.0000   0.2953
   7.000   0.9207   0.03414   0.01810  -0.0456  0.2500  0.2500  -1.7422   0.0000   0.2904
   7.500   0.9590   0.03546   0.01993  -0.0438  0.2500  0.2500  -1.8569   0.0000   0.2859
   8.000   0.9964   0.03692   0.02188  -0.0420  0.2500  0.2500  -1.9707   0.0000   0.2817
   8.500   1.0325   0.03857   0.02404  -0.0402  0.2500  0.2500  -2.1824   0.0000   0.2779
   9.000   1.0674   0.04040   0.02643  -0.0384  0.2500  0.2500  -2.4520   0.0000   0.2742
   9.500   1.1013   0.04244   0.02916  -0.0365  0.2500  0.2500  -2.7475   0.0000   0.2708
  10.000   1.1348   0.04474   0.03209  -0.0348  0.2500  0.2500  -3.0477   0.0000   0.2675
  10.500   1.1693   0.04736   0.03538  -0.0330  0.2500  0.2500  -3.3672   0.0000   0.2645
  11.000   1.2142   0.05059   0.03935  -0.0319  0.2500  0.2500  -3.7244   0.0000   0.2619
  11.500   1.2347   0.05471   0.04388  -0.0294  0.2340  0.2500  -3.9889   0.0000   0.2587
  12.000   1.2377   0.05927   0.04873  -0.0264  0.2154  0.2500  -4.1866   0.0000   0.2554
  12.500   1.2469   0.06344   0.05325  -0.0240  0.1992  0.2500  -4.4173   0.0000   0.2524
  13.000   1.2106   0.07380   0.06418  -0.0238  0.1885  0.2500  -4.3700   0.0000   0.2520
  13.500   1.1990   0.08120   0.07181  -0.0236  0.1760  0.2500  -4.4680   0.0000   0.2511
  14.000   1.0465   0.11686   0.10738  -0.0395  0.1723  0.2500  -3.5520   0.0000   0.2689
  14.500   1.1006   0.11205   0.10307  -0.0338  0.1588  0.2500  -4.0858   0.0000   0.2606
  15.000   0.9885   0.14702   0.13760  -0.0521  0.1528  0.2500  -3.2406   0.0000   0.2829
  15.500   0.9804   0.15850   0.14920  -0.0567  0.1453  0.2500  -3.1934   0.0000   0.2874
  16.000   0.9765   0.16735   0.15815  -0.0606  0.1295  0.2500  -3.1981   0.0000   0.2909
  16.500   0.9975   0.16754   0.15871  -0.0598  0.1041  0.2500  -3.4924   0.0000   0.2874
  17.000   0.9832   0.18109   0.17223  -0.0669  0.0909  0.2500  -3.2881   0.0000   0.2950
  17.500   0.9909   0.18775   0.17893  -0.0698  0.0766  0.2500  -3.3355   0.0000   0.2965
  18.000   0.9828   0.20168   0.19280  -0.0776  0.0677  0.2500  -3.1022   0.0000   0.3045
  18.500   0.9961   0.20824   0.19944  -0.0803  0.0620  0.2500  -3.1818   0.0000   0.3051
  19.000   1.0023   0.21833   0.20949  -0.0852  0.0590  0.2500  -3.1087   0.0000   0.3087
  19.500   1.0054   0.23065   0.22178  -0.0920  0.0574  0.2500  -2.9196   0.0000   0.3147
  20.000   1.0118   0.24111   0.23223  -0.0983  0.0547  0.2500  -2.7902   0.0000   0.3196


