xflr5 v6.42

 Calculated polar for: CLARK_Y

 1 1 Reynolds number fixed          Mach number fixed         

 xtrf =   0.250 (top)        0.250 (bottom)
 Mach =   0.000     Re =     0.200 e 6     Ncrit =   5.000

  alpha     CL        CD       CDp       Cm    Top Xtr Bot Xtr   Cpmin    Chinge    XCp    
 ------- -------- --------- --------- -------- ------- ------- -------- --------- ---------
 -10.000  -0.3986   0.09282   0.08634  -0.0460  0.2500  0.0299  -2.6666   0.0000   0.1216
  -9.500  -0.4155   0.07975   0.07335  -0.0542  0.2500  0.0308  -2.9936   0.0000   0.1074
  -9.000  -0.4954   0.04884   0.04206  -0.0810  0.2500  0.0315  -4.1889   0.0000   0.0756
  -8.500  -0.4991   0.03843   0.03074  -0.0832  0.2500  0.0328  -4.3106   0.0000   0.0729
  -8.000  -0.4705   0.03313   0.02485  -0.0828  0.2500  0.0338  -4.1183   0.0000   0.0637
  -7.500  -0.4310   0.02969   0.02092  -0.0822  0.2500  0.0350  -3.8318   0.0000   0.0491
  -7.000  -0.3858   0.02740   0.01824  -0.0816  0.2500  0.0369  -3.4942   0.0000   0.0282
  -6.500  -0.3393   0.02473   0.01504  -0.0809  0.2500  0.0383  -3.2339   0.0000   0.0011
  -6.000  -0.2901   0.02249   0.01235  -0.0802  0.2500  0.0395  -2.9665   0.0000  -0.0373
  -5.500  -0.2391   0.02075   0.01027  -0.0795  0.2500  0.0409  -2.7192   0.0000  -0.0944
  -5.000  -0.1872   0.01938   0.00861  -0.0789  0.2500  0.0422  -2.4749   0.0000  -0.1848
  -4.500  -0.1348   0.01831   0.00733  -0.0783  0.2500  0.0434  -2.2701   0.0000  -0.3473
  -4.000  -0.0832   0.01710   0.00604  -0.0777  0.2500  0.0475  -2.0690   0.0000  -0.7061
  -3.500  -0.0301   0.01641   0.00525  -0.0773  0.2500  0.0513  -1.8564   0.0000  -2.3694
  -3.000   0.0236   0.01585   0.00456  -0.0768  0.2500  0.0565  -1.6505   0.0000   3.5602
  -2.500   0.0773   0.01531   0.00400  -0.0764  0.2500  0.0725  -1.4473   0.0000   1.2504
  -2.000   0.1311   0.01485   0.00362  -0.0761  0.2500  0.1109  -1.2403   0.0000   0.8355
  -1.500   0.1842   0.01431   0.00340  -0.0758  0.2500  0.2038  -1.0508   0.0000   0.6640
  -1.000   0.2385   0.01413   0.00325  -0.0756  0.2500  0.2500  -0.8756   0.0000   0.5672
  -0.500   0.2935   0.01417   0.00314  -0.0753  0.2500  0.2500  -0.7031   0.0000   0.5057
   0.000   0.3484   0.01424   0.00309  -0.0750  0.2500  0.2500  -0.7205   0.0000   0.4637
   0.500   0.4031   0.01434   0.00310  -0.0747  0.2500  0.2500  -0.7708   0.0000   0.4331
   1.000   0.4576   0.01446   0.00316  -0.0744  0.2500  0.2500  -0.8233   0.0000   0.4097
   1.500   0.5118   0.01460   0.00327  -0.0740  0.2500  0.2500  -0.8783   0.0000   0.3913
   2.000   0.5658   0.01476   0.00344  -0.0737  0.2500  0.2500  -0.9337   0.0000   0.3764
   2.500   0.6195   0.01494   0.00364  -0.0733  0.2500  0.2500  -0.9894   0.0000   0.3640
   3.000   0.6728   0.01515   0.00390  -0.0728  0.2500  0.2500  -1.0454   0.0000   0.3535
   3.500   0.7258   0.01538   0.00419  -0.0724  0.2500  0.2500  -1.1080   0.0000   0.3444
   4.000   0.7784   0.01564   0.00453  -0.0718  0.2500  0.2500  -1.2233   0.0000   0.3365
   4.500   0.8305   0.01592   0.00494  -0.0712  0.2500  0.2500  -1.3440   0.0000   0.3295
   5.000   0.8822   0.01623   0.00538  -0.0705  0.2500  0.2500  -1.4670   0.0000   0.3232
   5.500   0.9333   0.01657   0.00589  -0.0698  0.2500  0.2500  -1.6030   0.0000   0.3175
   6.000   0.9838   0.01694   0.00644  -0.0690  0.2500  0.2500  -1.7463   0.0000   0.3123
   6.500   1.0336   0.01735   0.00705  -0.0680  0.2500  0.2500  -1.8913   0.0000   0.3074
   7.000   1.0828   0.01780   0.00775  -0.0670  0.2500  0.2500  -2.0380   0.0000   0.3029
   7.500   1.1311   0.01830   0.00849  -0.0659  0.2500  0.2500  -2.2929   0.0000   0.2986
   8.000   1.1785   0.01885   0.00935  -0.0646  0.2500  0.2500  -2.6335   0.0000   0.2946
   8.500   1.2195   0.01966   0.01026  -0.0625  0.2247  0.2500  -2.9675   0.0000   0.2903
   9.000   1.2477   0.02106   0.01143  -0.0586  0.1708  0.2500  -3.2814   0.0000   0.2853
   9.500   1.2711   0.02268   0.01293  -0.0541  0.1348  0.2500  -3.6091   0.0000   0.2802
  10.000   1.2960   0.02444   0.01470  -0.0502  0.1095  0.2500  -3.9522   0.0000   0.2756
  10.500   1.3213   0.02621   0.01657  -0.0467  0.0954  0.2500  -4.3031   0.0000   0.2715
  11.000   1.3420   0.02837   0.01877  -0.0432  0.0793  0.2500  -4.6376   0.0000   0.2675
  11.500   1.3608   0.03078   0.02124  -0.0398  0.0614  0.2500  -4.9636   0.0000   0.2637
  12.000   1.3656   0.03448   0.02482  -0.0360  0.0286  0.2500  -5.2157   0.0000   0.2600
  12.500   1.3664   0.03882   0.02921  -0.0327  0.0206  0.2500  -5.4391   0.0000   0.2566
  13.000   1.3709   0.04319   0.03382  -0.0304  0.0181  0.2500  -5.6738   0.0000   0.2539
  13.500   1.3724   0.04813   0.03906  -0.0287  0.0168  0.2500  -5.8946   0.0000   0.2516
  14.000   1.3681   0.05408   0.04532  -0.0278  0.0159  0.2500  -6.0796   0.0000   0.2500
  14.500   1.3578   0.06117   0.05272  -0.0277  0.0151  0.2500  -6.2226   0.0000   0.2491
  15.000   1.3416   0.06971   0.06156  -0.0289  0.0145  0.2500  -6.3184   0.0000   0.2492
  15.500   1.3194   0.07972   0.07188  -0.0313  0.0139  0.2500  -6.3587   0.0000   0.2503
  16.000   1.2941   0.09076   0.08322  -0.0346  0.0134  0.2500  -6.3579   0.0000   0.2523
  16.500   1.2787   0.10072   0.09348  -0.0380  0.0131  0.2500  -6.4229   0.0000   0.2542
  17.000   1.2623   0.11109   0.10412  -0.0419  0.0127  0.2500  -6.4788   0.0000   0.2566
  17.500   1.2461   0.12156   0.11485  -0.0461  0.0123  0.2500  -6.5299   0.0000   0.2594
  18.000   1.2315   0.13202   0.12555  -0.0506  0.0120  0.2500  -6.5744   0.0000   0.2625
  18.500   1.2202   0.14203   0.13578  -0.0551  0.0117  0.2500  -6.6287   0.0000   0.2655
  19.000   1.2112   0.15178   0.14574  -0.0598  0.0114  0.2500  -6.6860   0.0000   0.2687
  19.500   1.2026   0.16165   0.15582  -0.0649  0.0112  0.2500  -6.7265   0.0000   0.2722
  20.000   1.1950   0.17174   0.16611  -0.0704  0.0109  0.2500  -6.7502   0.0000   0.2762


