xflr5 v6.42

 Calculated polar for: clarky

 1 1 Reynolds number fixed          Mach number fixed         

 xtrf =   0.250 (top)        0.250 (bottom)
 Mach =   0.000     Re =     0.200 e 6     Ncrit =   5.000

  alpha     CL        CD       CDp       Cm    Top Xtr Bot Xtr   Cpmin    Chinge    XCp    
 ------- -------- --------- --------- -------- ------- ------- -------- --------- ---------
 -10.000  -0.4080   0.08832   0.08186  -0.0495  0.2500  0.0297  -2.9077   0.0000   0.1153
  -9.500  -0.4216   0.07706   0.07069  -0.0568  0.2500  0.0311  -3.1086   0.0000   0.1030
  -9.000  -0.4927   0.04854   0.04184  -0.0819  0.2500  0.0317  -4.1425   0.0000   0.0728
  -8.500  -0.4793   0.04201   0.03483  -0.0837  0.2500  0.0330  -4.0346   0.0000   0.0648
  -8.000  -0.4585   0.03521   0.02728  -0.0839  0.2500  0.0340  -3.9341   0.0000   0.0567
  -7.500  -0.4248   0.03037   0.02171  -0.0832  0.2500  0.0349  -3.7531   0.0000   0.0439
  -7.000  -0.3824   0.02730   0.01804  -0.0823  0.2500  0.0366  -3.4933   0.0000   0.0244
  -6.500  -0.3368   0.02439   0.01456  -0.0813  0.2500  0.0373  -3.2343   0.0000  -0.0022
  -6.000  -0.2882   0.02213   0.01182  -0.0805  0.2500  0.0380  -2.9726   0.0000  -0.0404
  -5.500  -0.2378   0.02042   0.00976  -0.0796  0.2500  0.0390  -2.7397   0.0000  -0.0970
  -5.000  -0.1868   0.01900   0.00811  -0.0788  0.2500  0.0405  -2.5140   0.0000  -0.1854
  -4.500  -0.1361   0.01780   0.00681  -0.0781  0.2500  0.0431  -2.3107   0.0000  -0.3401
  -4.000  -0.0840   0.01703   0.00593  -0.0775  0.2500  0.0458  -2.0953   0.0000  -0.6950
  -3.500  -0.0313   0.01640   0.00516  -0.0769  0.2500  0.0487  -1.8819   0.0000  -2.2530
  -3.000   0.0215   0.01584   0.00453  -0.0763  0.2500  0.0534  -1.6652   0.0000   3.8601
  -2.500   0.0747   0.01537   0.00404  -0.0758  0.2500  0.0653  -1.4551   0.0000   1.2777
  -2.000   0.1279   0.01489   0.00361  -0.0753  0.2500  0.0996  -1.2559   0.0000   0.8442
  -1.500   0.1805   0.01439   0.00337  -0.0749  0.2500  0.1751  -1.0525   0.0000   0.6671
  -1.000   0.2336   0.01407   0.00324  -0.0745  0.2500  0.2500  -0.8514   0.0000   0.5692
  -0.500   0.2882   0.01411   0.00311  -0.0741  0.2500  0.2500  -0.6898   0.0000   0.5063
   0.000   0.3427   0.01418   0.00307  -0.0737  0.2500  0.2500  -0.7174   0.0000   0.4635
   0.500   0.3970   0.01427   0.00308  -0.0733  0.2500  0.2500  -0.7689   0.0000   0.4324
   1.000   0.4511   0.01439   0.00314  -0.0729  0.2500  0.2500  -0.8209   0.0000   0.4088
   1.500   0.5050   0.01453   0.00324  -0.0725  0.2500  0.2500  -0.8732   0.0000   0.3902
   2.000   0.5586   0.01469   0.00340  -0.0721  0.2500  0.2500  -0.9275   0.0000   0.3752
   2.500   0.6120   0.01487   0.00360  -0.0716  0.2500  0.2500  -0.9842   0.0000   0.3627
   3.000   0.6650   0.01508   0.00385  -0.0711  0.2500  0.2500  -1.0413   0.0000   0.3521
   3.500   0.7177   0.01531   0.00414  -0.0705  0.2500  0.2500  -1.1018   0.0000   0.3430
   4.000   0.7700   0.01556   0.00449  -0.0699  0.2500  0.2500  -1.2131   0.0000   0.3351
   4.500   0.8219   0.01584   0.00487  -0.0693  0.2500  0.2500  -1.3306   0.0000   0.3281
   5.000   0.8733   0.01615   0.00534  -0.0686  0.2500  0.2500  -1.4613   0.0000   0.3218
   5.500   0.9242   0.01648   0.00582  -0.0678  0.2500  0.2500  -1.5954   0.0000   0.3161
   6.000   0.9745   0.01685   0.00636  -0.0669  0.2500  0.2500  -1.7315   0.0000   0.3108
   6.500   1.0242   0.01726   0.00695  -0.0660  0.2500  0.2500  -1.8715   0.0000   0.3060
   7.000   1.0732   0.01770   0.00766  -0.0650  0.2500  0.2500  -2.0257   0.0000   0.3015
   7.500   1.1215   0.01819   0.00840  -0.0638  0.2500  0.2500  -2.2369   0.0000   0.2973
   8.000   1.1689   0.01874   0.00926  -0.0626  0.2500  0.2500  -2.5803   0.0000   0.2932
   8.500   1.2081   0.01961   0.01016  -0.0602  0.2206  0.2500  -2.9227   0.0000   0.2888
   9.000   1.2360   0.02100   0.01133  -0.0563  0.1669  0.2500  -3.2472   0.0000   0.2839
   9.500   1.2615   0.02260   0.01283  -0.0522  0.1324  0.2500  -3.5789   0.0000   0.2790
  10.000   1.2883   0.02428   0.01451  -0.0487  0.1098  0.2500  -3.9242   0.0000   0.2747
  10.500   1.3135   0.02607   0.01637  -0.0453  0.0937  0.2500  -4.2699   0.0000   0.2706
  11.000   1.3349   0.02819   0.01860  -0.0418  0.0773  0.2500  -4.6035   0.0000   0.2666
  11.500   1.3534   0.03062   0.02109  -0.0385  0.0588  0.2500  -4.9409   0.0000   0.2629
  13.000   1.3701   0.04240   0.03308  -0.0294  0.0190  0.2500  -5.7838   0.0000   0.2532
  13.500   1.3723   0.04723   0.03821  -0.0277  0.0175  0.2500  -6.0457   0.0000   0.2509
  14.000   1.3688   0.05300   0.04428  -0.0267  0.0162  0.2500  -6.2723   0.0000   0.2492
  14.500   1.3598   0.05987   0.05149  -0.0266  0.0151  0.2500  -6.4552   0.0000   0.2482
  15.000   1.3464   0.06791   0.05984  -0.0275  0.0145  0.2500  -6.5932   0.0000   0.2481
  15.500   1.3282   0.07719   0.06944  -0.0295  0.0139  0.2500  -6.6827   0.0000   0.2488
  16.000   1.3069   0.08750   0.08006  -0.0325  0.0135  0.2500  -6.7309   0.0000   0.2503
  16.500   1.2841   0.09847   0.09132  -0.0361  0.0132  0.2500  -6.7488   0.0000   0.2526
  17.000   1.2626   0.10954   0.10266  -0.0401  0.0128  0.2500  -6.7542   0.0000   0.2552
  17.500   1.2432   0.12033   0.11371  -0.0442  0.0124  0.2500  -6.7531   0.0000   0.2580
  18.000   1.2294   0.13035   0.12395  -0.0482  0.0120  0.2500  -6.7841   0.0000   0.2606
  18.500   1.2196   0.14018   0.13402  -0.0528  0.0117  0.2500  -6.8465   0.0000   0.2636
  19.000   1.2091   0.15041   0.14450  -0.0580  0.0115  0.2500  -6.8779   0.0000   0.2673
  19.500   1.1982   0.16117   0.15551  -0.0638  0.0112  0.2500  -6.8726   0.0000   0.2716
  20.000   1.1863   0.17267   0.16725  -0.0704  0.0109  0.2500  -6.8134   0.0000   0.2767


