xflr5 v6.42

 Calculated polar for: CLARK_Y

 1 1 Reynolds number fixed          Mach number fixed         

 xtrf =   0.250 (top)        0.250 (bottom)
 Mach =   0.000     Re =     0.055 e 6     Ncrit =   5.000

  alpha     CL        CD       CDp       Cm    Top Xtr Bot Xtr   Cpmin    Chinge    XCp    
 ------- -------- --------- --------- -------- ------- ------- -------- --------- ---------
 -10.000  -0.3644   0.11172   0.10175  -0.0432  0.2500  0.0746  -1.9300   0.0000   0.1190
  -9.500  -0.3550   0.10385   0.09389  -0.0454  0.2500  0.0727  -1.9404   0.0000   0.1100
  -9.000  -0.3557   0.09551   0.08561  -0.0506  0.2500  0.0739  -2.0392   0.0000   0.0964
  -8.500  -0.3583   0.08652   0.07670  -0.0566  0.2500  0.0741  -2.1461   0.0000   0.0816
  -8.000  -0.3603   0.07709   0.06728  -0.0630  0.2500  0.0728  -2.2443   0.0000   0.0655
  -7.500  -0.3595   0.06664   0.05667  -0.0696  0.2500  0.0714  -2.3672   0.0000   0.0473
  -7.000  -0.3521   0.05673   0.04634  -0.0741  0.2500  0.0707  -2.4565   0.0000   0.0307
  -6.500  -0.3325   0.04829   0.03717  -0.0761  0.2500  0.0709  -2.4816   0.0000   0.0120
  -6.000  -0.3004   0.04183   0.02980  -0.0765  0.2500  0.0731  -2.4364   0.0000  -0.0139
  -5.500  -0.2597   0.03729   0.02427  -0.0760  0.2500  0.0775  -2.3131   0.0000  -0.0527
  -5.000  -0.2146   0.03325   0.01971  -0.0753  0.2500  0.0804  -2.1678   0.0000  -0.1117
  -4.500  -0.1658   0.03041   0.01642  -0.0745  0.2500  0.0845  -2.0017   0.0000  -0.2117
  -4.000  -0.1150   0.02812   0.01369  -0.0735  0.2500  0.0908  -1.8667   0.0000  -0.4048
  -3.500  -0.0640   0.02629   0.01158  -0.0724  0.2500  0.1035  -1.7215   0.0000  -0.9057
  -3.000  -0.0125   0.02475   0.00990  -0.0715  0.2500  0.1254  -1.5725   0.0000  -5.5888
  -2.500   0.0390   0.02331   0.00857  -0.0708  0.2500  0.1782  -1.4174   0.0000   2.0900
  -2.000   0.0901   0.02241   0.00769  -0.0699  0.2500  0.2500  -1.2434   0.0000   1.0341
  -1.500   0.1428   0.02228   0.00704  -0.0691  0.2500  0.2500  -1.0757   0.0000   0.7367
  -1.000   0.1956   0.02227   0.00666  -0.0684  0.2500  0.2500  -0.9090   0.0000   0.6004
  -0.500   0.2481   0.02234   0.00645  -0.0677  0.2500  0.2500  -0.7444   0.0000   0.5224
   0.000   0.3003   0.02247   0.00633  -0.0670  0.2500  0.2500  -0.6857   0.0000   0.4717
   0.500   0.3521   0.02264   0.00634  -0.0663  0.2500  0.2500  -0.7330   0.0000   0.4361
   1.000   0.4036   0.02287   0.00644  -0.0656  0.2500  0.2500  -0.7812   0.0000   0.4097
   1.500   0.4547   0.02314   0.00664  -0.0649  0.2500  0.2500  -0.8327   0.0000   0.3892
   2.000   0.5054   0.02346   0.00695  -0.0640  0.2500  0.2500  -0.8844   0.0000   0.3728
   2.500   0.5555   0.02382   0.00732  -0.0632  0.2500  0.2500  -0.9362   0.0000   0.3593
   3.000   0.6051   0.02423   0.00778  -0.0623  0.2500  0.2500  -0.9885   0.0000   0.3480
   3.500   0.6542   0.02469   0.00836  -0.0613  0.2500  0.2500  -1.0452   0.0000   0.3383
   4.000   0.7025   0.02520   0.00900  -0.0602  0.2500  0.2500  -1.1227   0.0000   0.3299
   4.500   0.7501   0.02576   0.00978  -0.0591  0.2500  0.2500  -1.2341   0.0000   0.3224
   5.000   0.7969   0.02639   0.01061  -0.0578  0.2500  0.2500  -1.3468   0.0000   0.3157
   5.500   0.8429   0.02707   0.01154  -0.0565  0.2500  0.2500  -1.4607   0.0000   0.3097
   6.000   0.8879   0.02782   0.01262  -0.0551  0.2500  0.2500  -1.5775   0.0000   0.3041
   6.500   0.9319   0.02865   0.01377  -0.0536  0.2500  0.2500  -1.7067   0.0000   0.2990
   7.000   0.9748   0.02956   0.01504  -0.0520  0.2500  0.2500  -1.8361   0.0000   0.2942
   7.500   1.0160   0.03055   0.01648  -0.0501  0.2500  0.2500  -1.9645   0.0000   0.2896
   8.000   1.0555   0.03164   0.01801  -0.0481  0.2500  0.2500  -2.1438   0.0000   0.2852
   8.500   1.0948   0.03286   0.01970  -0.0461  0.2500  0.2500  -2.4414   0.0000   0.2811
   9.000   1.1340   0.03422   0.02163  -0.0442  0.2500  0.2500  -2.7485   0.0000   0.2773
   9.500   1.1736   0.03572   0.02370  -0.0424  0.2500  0.2500  -3.0654   0.0000   0.2738
  10.000   1.2159   0.03737   0.02598  -0.0408  0.2500  0.2500  -3.4074   0.0000   0.2706
  10.500   1.2605   0.03951   0.02882  -0.0394  0.2445  0.2500  -3.7910   0.0000   0.2676
  11.000   1.2728   0.04230   0.03185  -0.0352  0.2198  0.2500  -4.0558   0.0000   0.2631
  11.500   1.2813   0.04556   0.03530  -0.0313  0.1979  0.2500  -4.3045   0.0000   0.2591
  12.000   1.2828   0.04949   0.03935  -0.0279  0.1777  0.2500  -4.5229   0.0000   0.2555
  12.500   1.2799   0.05414   0.04411  -0.0254  0.1599  0.2500  -4.7188   0.0000   0.2526
  13.000   1.2738   0.05959   0.04978  -0.0237  0.1444  0.2500  -4.8913   0.0000   0.2504
  13.500   1.2616   0.06648   0.05704  -0.0233  0.1298  0.2500  -5.0121   0.0000   0.2493
  14.000   1.2455   0.07412   0.06485  -0.0238  0.1167  0.2500  -5.1093   0.0000   0.2490
  14.500   1.2259   0.08310   0.07415  -0.0257  0.1044  0.2500  -5.1626   0.0000   0.2499
  15.000   1.2043   0.09315   0.08450  -0.0286  0.0931  0.2500  -5.1772   0.0000   0.2517
  15.500   1.1840   0.10328   0.09473  -0.0321  0.0814  0.2500  -5.1919   0.0000   0.2541
  16.000   1.1553   0.11632   0.10820  -0.0374  0.0713  0.2500  -5.0816   0.0000   0.2585
  16.500   1.1381   0.12693   0.11880  -0.0418  0.0615  0.2500  -5.0593   0.0000   0.2619
  17.000   1.0998   0.14409   0.13641  -0.0500  0.0563  0.2500  -4.7585   0.0000   0.2701
  17.500   1.0451   0.16780   0.16029  -0.0622  0.0531  0.2500  -4.1727   0.0000   0.2841
  18.000   1.0640   0.17046   0.16288  -0.0630  0.0473  0.2500  -4.4235   0.0000   0.2825
  18.500   1.0120   0.19942   0.19174  -0.0779  0.0455  0.2500  -3.5494   0.0000   0.3007
  19.000   1.0014   0.21632   0.20850  -0.0864  0.0435  0.2500  -3.1590   0.0000   0.3097
  20.000   1.0150   0.23591   0.22817  -0.0968  0.0374  0.2500  -2.9923   0.0000   0.3172


