xflr5 v6.42

 Calculated polar for: clarky

 1 1 Reynolds number fixed          Mach number fixed         

 xtrf =   0.250 (top)        0.250 (bottom)
 Mach =   0.000     Re =     0.055 e 6     Ncrit =   5.000

  alpha     CL        CD       CDp       Cm    Top Xtr Bot Xtr   Cpmin    Chinge    XCp    
 ------- -------- --------- --------- -------- ------- ------- -------- --------- ---------
 -10.000  -0.3547   0.11204   0.10209  -0.0421  0.2500  0.0766  -1.8479   0.0000   0.1187
  -9.500  -0.3470   0.10435   0.09436  -0.0448  0.2500  0.0749  -1.8675   0.0000   0.1086
  -9.000  -0.3477   0.09629   0.08637  -0.0499  0.2500  0.0767  -1.9493   0.0000   0.0950
  -8.500  -0.3471   0.08786   0.07800  -0.0549  0.2500  0.0765  -2.0147   0.0000   0.0812
  -8.000  -0.3484   0.07909   0.06928  -0.0604  0.2500  0.0744  -2.0935   0.0000   0.0668
  -7.500  -0.3488   0.06852   0.05862  -0.0681  0.2500  0.0722  -2.2360   0.0000   0.0455
  -7.000  -0.3446   0.05794   0.04766  -0.0737  0.2500  0.0705  -2.3715   0.0000   0.0271
  -6.500  -0.3282   0.04899   0.03803  -0.0762  0.2500  0.0699  -2.4255   0.0000   0.0087
  -6.000  -0.2989   0.04209   0.03025  -0.0766  0.2500  0.0706  -2.3836   0.0000  -0.0156
  -5.500  -0.2600   0.03691   0.02418  -0.0760  0.2500  0.0728  -2.2937   0.0000  -0.0522
  -5.000  -0.2147   0.03305   0.01941  -0.0750  0.2500  0.0762  -2.1860   0.0000  -0.1104
  -4.500  -0.1672   0.03049   0.01643  -0.0742  0.2500  0.0848  -2.0026   0.0000  -0.2059
  -4.000  -0.1173   0.02836   0.01396  -0.0732  0.2500  0.0924  -1.8603   0.0000  -0.3889
  -3.500  -0.0657   0.02646   0.01161  -0.0719  0.2500  0.0999  -1.7348   0.0000  -0.8670
  -3.000  -0.0152   0.02480   0.00986  -0.0708  0.2500  0.1165  -1.5864   0.0000  -4.4874
  -2.500   0.0360   0.02337   0.00854  -0.0700  0.2500  0.1627  -1.4331   0.0000   2.2205
  -2.000   0.0861   0.02236   0.00773  -0.0691  0.2500  0.2500  -1.2608   0.0000   1.0613
  -1.500   0.1387   0.02221   0.00705  -0.0682  0.2500  0.2500  -1.0718   0.0000   0.7453
  -1.000   0.1911   0.02221   0.00666  -0.0675  0.2500  0.2500  -0.8877   0.0000   0.6039
  -0.500   0.2432   0.02227   0.00642  -0.0667  0.2500  0.2500  -0.7366   0.0000   0.5237
   0.000   0.2951   0.02239   0.00631  -0.0660  0.2500  0.2500  -0.6821   0.0000   0.4720
   0.500   0.3467   0.02257   0.00633  -0.0652  0.2500  0.2500  -0.7307   0.0000   0.4358
   1.000   0.3979   0.02279   0.00642  -0.0644  0.2500  0.2500  -0.7795   0.0000   0.4090
   1.500   0.4487   0.02306   0.00661  -0.0636  0.2500  0.2500  -0.8285   0.0000   0.3883
   2.000   0.4991   0.02337   0.00690  -0.0627  0.2500  0.2500  -0.8791   0.0000   0.3717
   2.500   0.5490   0.02373   0.00728  -0.0618  0.2500  0.2500  -0.9320   0.0000   0.3582
   3.000   0.5984   0.02414   0.00775  -0.0609  0.2500  0.2500  -0.9850   0.0000   0.3468
   3.500   0.6472   0.02460   0.00831  -0.0599  0.2500  0.2500  -1.0410   0.0000   0.3371
   4.000   0.6954   0.02510   0.00897  -0.0588  0.2500  0.2500  -1.1172   0.0000   0.3286
   4.500   0.7429   0.02567   0.00970  -0.0576  0.2500  0.2500  -1.2258   0.0000   0.3212
   5.000   0.7895   0.02628   0.01053  -0.0564  0.2500  0.2500  -1.3358   0.0000   0.3145
   5.500   0.8353   0.02696   0.01150  -0.0550  0.2500  0.2500  -1.4541   0.0000   0.3085
   6.000   0.8803   0.02771   0.01253  -0.0536  0.2500  0.2500  -1.5767   0.0000   0.3029
   6.500   0.9242   0.02854   0.01367  -0.0521  0.2500  0.2500  -1.6998   0.0000   0.2978
   7.000   0.9670   0.02944   0.01492  -0.0505  0.2500  0.2500  -1.8230   0.0000   0.2931
   7.500   1.0079   0.03042   0.01638  -0.0486  0.2500  0.2500  -1.9448   0.0000   0.2885
   8.000   1.0477   0.03151   0.01790  -0.0466  0.2500  0.2500  -2.1052   0.0000   0.2841
   8.500   1.0873   0.03274   0.01960  -0.0447  0.2500  0.2500  -2.3909   0.0000   0.2801
   9.000   1.1265   0.03409   0.02155  -0.0429  0.2500  0.2500  -2.7098   0.0000   0.2764
   9.500   1.1660   0.03558   0.02360  -0.0411  0.2500  0.2500  -3.0411   0.0000   0.2729
  10.000   1.2080   0.03724   0.02587  -0.0395  0.2500  0.2500  -3.4049   0.0000   0.2697
  10.500   1.2550   0.03927   0.02851  -0.0383  0.2465  0.2500  -3.7959   0.0000   0.2668
  11.000   1.2671   0.04194   0.03135  -0.0341  0.2220  0.2500  -4.0604   0.0000   0.2624
  11.500   1.2734   0.04520   0.03485  -0.0301  0.1991  0.2500  -4.3000   0.0000   0.2583
  12.000   1.2751   0.04916   0.03895  -0.0269  0.1785  0.2500  -4.5164   0.0000   0.2548
  12.500   1.2727   0.05383   0.04375  -0.0244  0.1605  0.2500  -4.7115   0.0000   0.2520
  13.000   1.2665   0.05955   0.04981  -0.0230  0.1446  0.2500  -4.8728   0.0000   0.2500
  13.500   1.2548   0.06629   0.05682  -0.0226  0.1299  0.2500  -4.9986   0.0000   0.2489
  14.000   1.2380   0.07407   0.06476  -0.0233  0.1162  0.2500  -5.0981   0.0000   0.2487
  14.500   1.2181   0.08313   0.07411  -0.0254  0.1035  0.2500  -5.1663   0.0000   0.2497
  15.000   1.1983   0.09303   0.08434  -0.0281  0.0928  0.2500  -5.2032   0.0000   0.2514
  15.500   1.1794   0.10305   0.09454  -0.0315  0.0821  0.2500  -5.2341   0.0000   0.2537
  16.000   1.1529   0.11562   0.10751  -0.0363  0.0726  0.2500  -5.1454   0.0000   0.2576
  16.500   1.1312   0.12753   0.11959  -0.0414  0.0632  0.2500  -5.0762   0.0000   0.2619
  17.000   1.1052   0.14133   0.13356  -0.0477  0.0570  0.2500  -4.9091   0.0000   0.2677
  17.500   1.0589   0.16237   0.15484  -0.0588  0.0538  0.2500  -4.4233   0.0000   0.2799
  18.000   1.0495   0.17437   0.16681  -0.0650  0.0492  0.2500  -4.3059   0.0000   0.2855
  18.500   1.0081   0.20087   0.19314  -0.0790  0.0465  0.2500  -3.5064   0.0000   0.3023
  19.000   1.0124   0.21066   0.20293  -0.0845  0.0419  0.2500  -3.4511   0.0000   0.3066
  20.000   1.0192   0.23385   0.22604  -0.0972  0.0379  0.2500  -3.1175   0.0000   0.3172


