xflr5 v6.42

 Calculated polar for: clarky

 1 1 Reynolds number fixed          Mach number fixed         

 xtrf =   0.250 (top)        0.250 (bottom)
 Mach =   0.000     Re =     0.400 e 6     Ncrit =   5.000

  alpha     CL        CD       CDp       Cm    Top Xtr Bot Xtr   Cpmin    Chinge    XCp    
 ------- -------- --------- --------- -------- ------- ------- -------- --------- ---------
 -10.000  -0.6369   0.03583   0.02978  -0.0857  0.2500  0.0230  -6.0450   0.0000   0.1037
  -9.500  -0.6074   0.03212   0.02562  -0.0854  0.2500  0.0241  -5.6732   0.0000   0.0982
  -9.000  -0.5722   0.02877   0.02179  -0.0847  0.2500  0.0252  -5.2766   0.0000   0.0911
  -8.500  -0.5306   0.02630   0.01886  -0.0839  0.2500  0.0265  -4.8509   0.0000   0.0811
  -8.000  -0.4859   0.02420   0.01635  -0.0832  0.2500  0.0277  -4.4586   0.0000   0.0682
  -7.500  -0.4397   0.02204   0.01379  -0.0823  0.2500  0.0282  -4.1249   0.0000   0.0522
  -7.000  -0.3908   0.02039   0.01181  -0.0816  0.2500  0.0288  -3.7740   0.0000   0.0305
  -6.500  -0.3404   0.01908   0.01023  -0.0810  0.2500  0.0293  -3.4184   0.0000   0.0012
  -6.000  -0.2895   0.01776   0.00863  -0.0803  0.2500  0.0296  -3.1230   0.0000  -0.0388
  -5.500  -0.2376   0.01673   0.00741  -0.0797  0.2500  0.0299  -2.8410   0.0000  -0.0977
  -5.000  -0.1873   0.01532   0.00583  -0.0789  0.2500  0.0316  -2.6444   0.0000  -0.1848
  -4.500  -0.1348   0.01454   0.00493  -0.0783  0.2500  0.0339  -2.4178   0.0000  -0.3472
  -4.000  -0.0813   0.01402   0.00433  -0.0779  0.2500  0.0360  -2.1788   0.0000  -0.7311
  -3.500  -0.0273   0.01361   0.00382  -0.0775  0.2500  0.0378  -1.9417   0.0000  -2.6430
  -3.000   0.0270   0.01327   0.00338  -0.0772  0.2500  0.0392  -1.7082   0.0000   3.1553
  -2.500   0.0815   0.01298   0.00302  -0.0768  0.2500  0.0413  -1.4827   0.0000   1.2047
  -2.000   0.1360   0.01271   0.00274  -0.0765  0.2500  0.0479  -1.2636   0.0000   0.8177
  -1.500   0.1901   0.01238   0.00255  -0.0762  0.2500  0.0858  -1.0535   0.0000   0.6530
  -1.000   0.2442   0.01207   0.00243  -0.0760  0.2500  0.1423  -0.8490   0.0000   0.5615
  -0.500   0.2978   0.01173   0.00239  -0.0757  0.2500  0.2425  -0.6804   0.0000   0.5035
   0.000   0.3531   0.01176   0.00237  -0.0755  0.2500  0.2500  -0.7245   0.0000   0.4623
   0.500   0.4084   0.01184   0.00239  -0.0753  0.2500  0.2500  -0.7768   0.0000   0.4322
   1.000   0.4635   0.01193   0.00244  -0.0751  0.2500  0.2500  -0.8296   0.0000   0.4092
   1.500   0.5184   0.01204   0.00253  -0.0749  0.2500  0.2500  -0.8828   0.0000   0.3911
   2.000   0.5731   0.01217   0.00266  -0.0746  0.2500  0.2500  -0.9382   0.0000   0.3764
   2.500   0.6276   0.01231   0.00282  -0.0743  0.2500  0.2500  -0.9960   0.0000   0.3642
   3.000   0.6818   0.01247   0.00301  -0.0740  0.2500  0.2500  -1.0541   0.0000   0.3539
   3.500   0.7358   0.01264   0.00325  -0.0737  0.2500  0.2500  -1.1194   0.0000   0.3450
   4.000   0.7894   0.01283   0.00350  -0.0733  0.2500  0.2500  -1.2368   0.0000   0.3372
   4.500   0.8427   0.01304   0.00379  -0.0729  0.2500  0.2500  -1.3591   0.0000   0.3303
   5.000   0.8955   0.01327   0.00414  -0.0725  0.2500  0.2500  -1.4941   0.0000   0.3242
   5.500   0.9480   0.01352   0.00450  -0.0719  0.2500  0.2500  -1.6317   0.0000   0.3186
   6.000   0.9999   0.01380   0.00491  -0.0713  0.2500  0.2500  -1.7716   0.0000   0.3135
   6.500   1.0512   0.01410   0.00539  -0.0706  0.2500  0.2500  -1.9277   0.0000   0.3088
   7.000   1.1020   0.01443   0.00590  -0.0699  0.2500  0.2500  -2.0877   0.0000   0.3044
   7.500   1.1457   0.01520   0.00653  -0.0682  0.2073  0.2500  -2.3327   0.0000   0.2998
   8.000   1.1827   0.01643   0.00750  -0.0655  0.1513  0.2500  -2.6578   0.0000   0.2951
   8.500   1.2181   0.01769   0.00860  -0.0627  0.1123  0.2500  -2.9907   0.0000   0.2905
   9.000   1.2514   0.01881   0.00966  -0.0594  0.0895  0.2500  -3.3441   0.0000   0.2858
   9.500   1.2849   0.01993   0.01079  -0.0563  0.0736  0.2500  -3.7164   0.0000   0.2814
  10.000   1.3162   0.02126   0.01211  -0.0531  0.0575  0.2500  -4.0889   0.0000   0.2773
  10.500   1.3322   0.02364   0.01426  -0.0484  0.0234  0.2500  -4.3963   0.0000   0.2725
  11.000   1.3539   0.02567   0.01642  -0.0447  0.0169  0.2500  -4.7502   0.0000   0.2683
  11.500   1.3746   0.02787   0.01879  -0.0413  0.0138  0.2500  -5.1245   0.0000   0.2645
  12.000   1.3932   0.03038   0.02153  -0.0381  0.0120  0.2500  -5.4885   0.0000   0.2610
  12.500   1.4108   0.03310   0.02447  -0.0355  0.0114  0.2500  -5.8698   0.0000   0.2579
  13.000   1.4234   0.03642   0.02804  -0.0330  0.0108  0.2500  -6.2242   0.0000   0.2550
  13.500   1.4313   0.04043   0.03228  -0.0310  0.0101  0.2500  -6.5547   0.0000   0.2524
  14.000   1.4338   0.04522   0.03734  -0.0294  0.0095  0.2500  -6.8563   0.0000   0.2503
  14.500   1.4307   0.05099   0.04335  -0.0286  0.0091  0.2500  -7.1198   0.0000   0.2487
  15.000   1.4196   0.05819   0.05079  -0.0286  0.0086  0.2500  -7.3155   0.0000   0.2478
  15.500   1.4006   0.06706   0.05994  -0.0298  0.0083  0.2500  -7.4313   0.0000   0.2478
  16.000   1.3754   0.07742   0.07057  -0.0322  0.0081  0.2500  -7.4788   0.0000   0.2488
  16.500   1.3612   0.08665   0.08006  -0.0347  0.0080  0.2500  -7.6151   0.0000   0.2499
  17.000   1.3448   0.09651   0.09017  -0.0378  0.0078  0.2500  -7.7196   0.0000   0.2514
  17.500   1.3278   0.10678   0.10067  -0.0414  0.0077  0.2500  -7.8034   0.0000   0.2534
  18.000   1.3106   0.11723   0.11135  -0.0454  0.0075  0.2500  -7.8688   0.0000   0.2558
  18.500   1.2944   0.12771   0.12206  -0.0498  0.0073  0.2500  -7.9251   0.0000   0.2585
  19.000   1.2798   0.13816   0.13273  -0.0545  0.0071  0.2500  -7.9758   0.0000   0.2616
  19.500   1.2670   0.14845   0.14323  -0.0595  0.0069  0.2500  -8.0227   0.0000   0.2649
  20.000   1.2557   0.15874   0.15371  -0.0649  0.0067  0.2500  -8.0599   0.0000   0.2685


