xflr5 v6.42

 Calculated polar for: clarky

 1 1 Reynolds number fixed          Mach number fixed         

 xtrf =   0.250 (top)        0.250 (bottom)
 Mach =   0.000     Re =     2.000 e 6     Ncrit =   5.000

  alpha     CL        CD       CDp       Cm    Top Xtr Bot Xtr   Cpmin    Chinge    XCp    
 ------- -------- --------- --------- -------- ------- ------- -------- --------- ---------
 -10.000  -0.7306   0.01454   0.00828  -0.0818  0.2500  0.0190  -7.4040   0.0000   0.1263
  -9.500  -0.6758   0.01433   0.00803  -0.0817  0.2500  0.0193  -6.7183   0.0000   0.1178
  -9.000  -0.6206   0.01420   0.00786  -0.0816  0.2500  0.0196  -6.0553   0.0000   0.1074
  -8.500  -0.5675   0.01360   0.00716  -0.0813  0.2500  0.0197  -5.4513   0.0000   0.0960
  -8.000  -0.5144   0.01297   0.00639  -0.0809  0.2500  0.0198  -4.9614   0.0000   0.0821
  -7.500  -0.4603   0.01251   0.00585  -0.0806  0.2500  0.0199  -4.5078   0.0000   0.0641
  -7.000  -0.4056   0.01213   0.00541  -0.0805  0.2500  0.0199  -4.0663   0.0000   0.0409
  -6.500  -0.3516   0.01157   0.00474  -0.0802  0.2500  0.0200  -3.6827   0.0000   0.0111
  -6.000  -0.2977   0.01096   0.00400  -0.0798  0.2500  0.0200  -3.3871   0.0000  -0.0295
  -5.000  -0.1887   0.00988   0.00267  -0.0792  0.2500  0.0222  -2.8889   0.0000  -0.1833
  -4.500  -0.1328   0.00965   0.00242  -0.0791  0.2500  0.0251  -2.6034   0.0000  -0.3624
  -4.000  -0.0766   0.00948   0.00224  -0.0791  0.2500  0.0271  -2.3177   0.0000  -0.8070
  -3.500  -0.0202   0.00934   0.00207  -0.0790  0.2500  0.0283  -2.0411   0.0000  -3.7314
  -3.000   0.0361   0.00922   0.00192  -0.0791  0.2500  0.0290  -1.7755   0.0000   2.4716
  -2.500   0.0926   0.00912   0.00180  -0.0791  0.2500  0.0294  -1.5217   0.0000   1.1143
  -2.000   0.1491   0.00902   0.00169  -0.0791  0.2500  0.0297  -1.2801   0.0000   0.7850
  -1.500   0.2056   0.00895   0.00160  -0.0791  0.2500  0.0299  -1.0505   0.0000   0.6366
  -1.000   0.2621   0.00888   0.00153  -0.0791  0.2500  0.0300  -0.8328   0.0000   0.5522
  -0.500   0.3186   0.00882   0.00147  -0.0792  0.2500  0.0343  -0.6847   0.0000   0.4977
   0.000   0.3744   0.00862   0.00144  -0.0792  0.2500  0.0764  -0.7370   0.0000   0.4598
   0.500   0.4307   0.00856   0.00145  -0.0792  0.2500  0.1020  -0.7902   0.0000   0.4317
   1.000   0.4862   0.00834   0.00148  -0.0792  0.2500  0.1898  -0.8434   0.0000   0.4102
   1.500   0.5422   0.00824   0.00154  -0.0793  0.2500  0.2500  -0.8975   0.0000   0.3929
   2.000   0.5987   0.00832   0.00162  -0.0794  0.2500  0.2500  -0.9554   0.0000   0.3788
   2.500   0.6552   0.00840   0.00171  -0.0794  0.2500  0.2500  -1.0149   0.0000   0.3670
   3.000   0.7115   0.00848   0.00182  -0.0795  0.2500  0.2500  -1.0748   0.0000   0.3571
   3.500   0.7676   0.00858   0.00194  -0.0796  0.2500  0.2500  -1.1566   0.0000   0.3485
   4.000   0.8235   0.00868   0.00208  -0.0796  0.2500  0.2500  -1.2778   0.0000   0.3410
   4.500   0.8792   0.00879   0.00224  -0.0796  0.2500  0.2500  -1.4090   0.0000   0.3344
   5.000   0.9331   0.00904   0.00245  -0.0794  0.2353  0.2500  -1.5472   0.0000   0.3284
   5.500   0.9825   0.00965   0.00284  -0.0785  0.1878  0.2500  -1.6822   0.0000   0.3226
   6.000   1.0270   0.01065   0.00348  -0.0768  0.1199  0.2500  -1.8260   0.0000   0.3170
   6.500   1.0759   0.01125   0.00397  -0.0758  0.0927  0.2500  -1.9833   0.0000   0.3120
   7.000   1.1249   0.01180   0.00444  -0.0748  0.0736  0.2500  -2.1450   0.0000   0.3075
   7.500   1.1730   0.01240   0.00496  -0.0737  0.0564  0.2500  -2.4534   0.0000   0.3032
   8.000   1.2138   0.01352   0.00588  -0.0715  0.0235  0.2500  -2.7986   0.0000   0.2986
   8.500   1.2588   0.01424   0.00657  -0.0699  0.0138  0.2500  -3.1760   0.0000   0.2946
   9.000   1.3047   0.01481   0.00718  -0.0685  0.0111  0.2500  -3.6010   0.0000   0.2909
   9.500   1.3474   0.01554   0.00794  -0.0667  0.0093  0.2500  -4.0333   0.0000   0.2871
  10.000   1.3875   0.01626   0.00871  -0.0643  0.0080  0.2500  -4.4781   0.0000   0.2832
  10.500   1.4244   0.01693   0.00946  -0.0614  0.0078  0.2500  -4.9674   0.0000   0.2793
  11.000   1.4612   0.01776   0.01034  -0.0588  0.0071  0.2500  -5.4777   0.0000   0.2756
  11.500   1.4950   0.01875   0.01140  -0.0559  0.0063  0.2500  -5.9880   0.0000   0.2719
  12.000   1.5259   0.01992   0.01262  -0.0528  0.0056  0.2500  -6.4980   0.0000   0.2682
  12.500   1.5542   0.02126   0.01405  -0.0496  0.0049  0.2500  -7.0057   0.0000   0.2647
  13.000   1.5794   0.02289   0.01578  -0.0463  0.0043  0.2500  -7.5012   0.0000   0.2612
  13.500   1.6026   0.02475   0.01775  -0.0432  0.0040  0.2500  -7.9991   0.0000   0.2579
  14.000   1.6254   0.02672   0.01982  -0.0405  0.0040  0.2500  -8.5161   0.0000   0.2549
  14.500   1.6459   0.02900   0.02221  -0.0380  0.0039  0.2500  -9.0286   0.0000   0.2520
  15.000   1.6629   0.03169   0.02503  -0.0356  0.0038  0.2500  -9.5245   0.0000   0.2493
  15.500   1.6771   0.03480   0.02826  -0.0335  0.0036  0.2500  -10.0075   0.0000   0.2468
  16.000   1.6873   0.03844   0.03203  -0.0317  0.0035  0.2500  -10.4664   0.0000   0.2445
  16.500   1.6934   0.04273   0.03645  -0.0303  0.0033  0.2500  -10.8955   0.0000   0.2424
  17.000   1.6961   0.04769   0.04155  -0.0294  0.0032  0.2500  -11.2981   0.0000   0.2407
  17.500   1.6942   0.05342   0.04744  -0.0290  0.0030  0.2500  -11.6606   0.0000   0.2393
  18.000   1.6879   0.06008   0.05425  -0.0293  0.0029  0.2500  -11.9803   0.0000   0.2383
  18.500   1.6758   0.06775   0.06209  -0.0303  0.0028  0.2500  -12.2409   0.0000   0.2377
  19.000   1.6582   0.07654   0.07106  -0.0320  0.0027  0.2500  -12.4375   0.0000   0.2377
  19.500   1.6352   0.08644   0.08115  -0.0346  0.0026  0.2500  -12.5664   0.0000   0.2382
  20.000   1.6068   0.09740   0.09230  -0.0379  0.0025  0.2500  -12.6205   0.0000   0.2393


