xflr5 v6.42

 Calculated polar for: CLARK_Y

 1 1 Reynolds number fixed          Mach number fixed         

 xtrf =   0.250 (top)        0.250 (bottom)
 Mach =   0.000     Re =     1.000 e 6     Ncrit =   5.000

  alpha     CL        CD       CDp       Cm    Top Xtr Bot Xtr   Cpmin    Chinge    XCp    
 ------- -------- --------- --------- -------- ------- ------- -------- --------- ---------
 -10.000  -0.7201   0.01863   0.01196  -0.0818  0.2500  0.0198  -7.0913   0.0000   0.1247
  -9.500  -0.6686   0.01792   0.01110  -0.0814  0.2500  0.0206  -6.4935   0.0000   0.1169
  -9.000  -0.6163   0.01728   0.01033  -0.0811  0.2500  0.0214  -5.9125   0.0000   0.1073
  -8.500  -0.5647   0.01640   0.00928  -0.0808  0.2500  0.0220  -5.3834   0.0000   0.0962
  -8.000  -0.5118   0.01570   0.00842  -0.0805  0.2500  0.0226  -4.9008   0.0000   0.0822
  -7.500  -0.4582   0.01512   0.00772  -0.0802  0.2500  0.0230  -4.4301   0.0000   0.0644
  -7.000  -0.4043   0.01455   0.00702  -0.0800  0.2500  0.0233  -4.0132   0.0000   0.0415
  -6.500  -0.3520   0.01356   0.00585  -0.0796  0.2500  0.0241  -3.6472   0.0000   0.0130
  -6.000  -0.2987   0.01272   0.00488  -0.0792  0.2500  0.0253  -3.3468   0.0000  -0.0265
  -5.500  -0.2439   0.01223   0.00431  -0.0791  0.2500  0.0263  -3.0600   0.0000  -0.0863
  -5.000  -0.1887   0.01184   0.00383  -0.0790  0.2500  0.0272  -2.7766   0.0000  -0.1823
  -4.500  -0.1331   0.01149   0.00341  -0.0789  0.2500  0.0280  -2.5017   0.0000  -0.3594
  -4.000  -0.0773   0.01119   0.00302  -0.0788  0.2500  0.0289  -2.2357   0.0000  -0.7941
  -3.500  -0.0213   0.01093   0.00270  -0.0788  0.2500  0.0298  -1.9780   0.0000  -3.5233
  -3.000   0.0349   0.01072   0.00244  -0.0788  0.2500  0.0309  -1.7280   0.0000   2.5449
  -2.500   0.0912   0.01056   0.00223  -0.0788  0.2500  0.0318  -1.4847   0.0000   1.1248
  -2.000   0.1476   0.01040   0.00203  -0.0788  0.2500  0.0354  -1.2571   0.0000   0.7889
  -1.500   0.2039   0.01026   0.00190  -0.0789  0.2500  0.0410  -1.0440   0.0000   0.6387
  -1.000   0.2599   0.01004   0.00182  -0.0789  0.2500  0.0732  -0.8622   0.0000   0.5540
  -0.500   0.3161   0.00994   0.00178  -0.0790  0.2500  0.0970  -0.6849   0.0000   0.4991
   0.000   0.3719   0.00970   0.00176  -0.0791  0.2500  0.1707  -0.7342   0.0000   0.4611
   0.500   0.4276   0.00951   0.00180  -0.0791  0.2500  0.2500  -0.7854   0.0000   0.4329
   1.000   0.4842   0.00958   0.00185  -0.0792  0.2500  0.2500  -0.8416   0.0000   0.4109
   1.500   0.5406   0.00966   0.00192  -0.0793  0.2500  0.2500  -0.8985   0.0000   0.3934
   2.000   0.5969   0.00975   0.00201  -0.0793  0.2500  0.2500  -0.9558   0.0000   0.3792
   2.500   0.6530   0.00985   0.00212  -0.0794  0.2500  0.2500  -1.0136   0.0000   0.3674
   3.000   0.7089   0.00996   0.00227  -0.0794  0.2500  0.2500  -1.0718   0.0000   0.3573
   3.500   0.7646   0.01008   0.00242  -0.0794  0.2500  0.2500  -1.1522   0.0000   0.3487
   4.000   0.8200   0.01022   0.00261  -0.0793  0.2500  0.2500  -1.2756   0.0000   0.3411
   4.500   0.8752   0.01036   0.00281  -0.0793  0.2500  0.2500  -1.4017   0.0000   0.3344
   5.000   0.9300   0.01052   0.00304  -0.0792  0.2500  0.2500  -1.5381   0.0000   0.3284
   5.500   0.9846   0.01069   0.00331  -0.0790  0.2500  0.2500  -1.6874   0.0000   0.3230
   6.000   1.0360   0.01109   0.00365  -0.0784  0.2281  0.2500  -1.8360   0.0000   0.3179
   6.500   1.0841   0.01174   0.00415  -0.0773  0.1885  0.2500  -1.9827   0.0000   0.3129
   7.000   1.1263   0.01283   0.00492  -0.0753  0.1294  0.2500  -2.1369   0.0000   0.3079
   7.500   1.1699   0.01375   0.00567  -0.0736  0.0939  0.2500  -2.4618   0.0000   0.3033
   8.000   1.2149   0.01448   0.00636  -0.0720  0.0755  0.2500  -2.8077   0.0000   0.2990
   8.500   1.2587   0.01525   0.00707  -0.0703  0.0606  0.2500  -3.1725   0.0000   0.2949
   9.000   1.2946   0.01648   0.00813  -0.0674  0.0331  0.2500  -3.5567   0.0000   0.2904
   9.500   1.3243   0.01782   0.00941  -0.0634  0.0134  0.2500  -3.9261   0.0000   0.2855
  10.000   1.3580   0.01871   0.01038  -0.0600  0.0116  0.2500  -4.3314   0.0000   0.2811
  10.500   1.3900   0.01989   0.01165  -0.0567  0.0095  0.2500  -4.7384   0.0000   0.2769
  11.000   1.4222   0.02103   0.01290  -0.0537  0.0087  0.2500  -5.1655   0.0000   0.2731
  11.500   1.4522   0.02235   0.01434  -0.0506  0.0080  0.2500  -5.5934   0.0000   0.2694
  12.000   1.4786   0.02394   0.01604  -0.0475  0.0073  0.2500  -6.0148   0.0000   0.2658
  12.500   1.5012   0.02589   0.01809  -0.0442  0.0066  0.2500  -6.4238   0.0000   0.2622
  13.000   1.5181   0.02839   0.02076  -0.0408  0.0060  0.2500  -6.7932   0.0000   0.2588
  13.500   1.5351   0.03106   0.02359  -0.0380  0.0058  0.2500  -7.1802   0.0000   0.2557
  14.000   1.5502   0.03404   0.02672  -0.0356  0.0056  0.2500  -7.5674   0.0000   0.2529
  14.500   1.5622   0.03752   0.03038  -0.0336  0.0054  0.2500  -7.9382   0.0000   0.2504
  15.000   1.5690   0.04168   0.03471  -0.0318  0.0053  0.2500  -8.3109   0.0000   0.2481
  15.500   1.5729   0.04644   0.03964  -0.0306  0.0051  0.2500  -8.6733   0.0000   0.2462
  16.000   1.5729   0.05200   0.04539  -0.0301  0.0049  0.2500  -9.0084   0.0000   0.2447
  16.500   1.5691   0.05831   0.05190  -0.0302  0.0047  0.2500  -9.3127   0.0000   0.2437
  17.000   1.5612   0.06556   0.05935  -0.0310  0.0045  0.2500  -9.5790   0.0000   0.2431
  17.500   1.5473   0.07404   0.06803  -0.0327  0.0043  0.2500  -9.7856   0.0000   0.2431
  18.000   1.5273   0.08370   0.07790  -0.0351  0.0042  0.2500  -9.9243   0.0000   0.2438
  18.500   1.5020   0.09458   0.08900  -0.0384  0.0041  0.2500  -9.9957   0.0000   0.2452
  19.000   1.4727   0.10651   0.10116  -0.0426  0.0041  0.2500  -10.0049   0.0000   0.2474
  19.500   1.4405   0.11909   0.11398  -0.0475  0.0040  0.2500  -9.9585   0.0000   0.2502
  20.000   1.4093   0.13184   0.12694  -0.0530  0.0039  0.2500  -9.8925   0.0000   0.2537


