xflr5 v6.42

 Calculated polar for: clarky

 1 1 Reynolds number fixed          Mach number fixed         

 xtrf =   0.250 (top)        0.250 (bottom)
 Mach =   0.000     Re =     0.007 e 6     Ncrit =   5.000

  alpha     CL        CD       CDp       Cm    Top Xtr Bot Xtr   Cpmin    Chinge    XCp    
 ------- -------- --------- --------- -------- ------- ------- -------- --------- ---------
 -10.000  -0.3690   0.14172   0.12068  -0.0294  0.2500  0.2500  -1.5353   0.0000   0.1583
  -9.500  -0.3626   0.13525   0.11431  -0.0311  0.2500  0.2500  -1.5500   0.0000   0.1526
  -9.000  -0.3577   0.12880   0.10799  -0.0328  0.2500  0.2500  -1.5654   0.0000   0.1474
  -8.500  -0.3551   0.12248   0.10183  -0.0342  0.2500  0.2500  -1.5832   0.0000   0.1433
  -8.000  -0.3531   0.11610   0.09561  -0.0358  0.2500  0.2500  -1.6024   0.0000   0.1389
  -7.500  -0.3505   0.10953   0.08918  -0.0376  0.2500  0.2500  -1.6208   0.0000   0.1335
  -7.000  -0.3475   0.10289   0.08264  -0.0395  0.2500  0.2500  -1.6381   0.0000   0.1279
  -6.500  -0.3428   0.09615   0.07592  -0.0414  0.2500  0.2500  -1.6589   0.0000   0.1213
  -6.000  -0.3346   0.08932   0.06898  -0.0434  0.2500  0.2500  -1.6900   0.0000   0.1128
  -5.500  -0.3204   0.08243   0.06164  -0.0457  0.2500  0.2500  -1.7110   0.0000   0.1001
  -5.000  -0.2978   0.07565   0.05431  -0.0481  0.2500  0.2500  -1.7158   0.0000   0.0811
  -4.500  -0.2652   0.06918   0.04704  -0.0507  0.2500  0.2500  -1.6985   0.0000   0.0514
  -4.000  -0.2228   0.06332   0.04019  -0.0529  0.2500  0.2500  -1.6800   0.0000   0.0041
  -3.500  -0.1747   0.05842   0.03429  -0.0543  0.2500  0.2500  -1.6359   0.0000  -0.0705
  -3.000  -0.1277   0.05489   0.02991  -0.0543  0.2500  0.2500  -1.5535   0.0000  -0.1866
  -2.500  -0.0841   0.05279   0.02683  -0.0531  0.2500  0.2500  -1.4369   0.0000  -0.3974
  -2.000  -0.0423   0.05165   0.02479  -0.0516  0.2500  0.2500  -1.3003   0.0000  -0.9939
  -1.500  -0.0017   0.05107   0.02337  -0.0500  0.2500  0.2500  -1.1544   0.0000  -30.4792
  -1.000   0.0384   0.05085   0.02235  -0.0485  0.2500  0.2500  -1.0199   0.0000   1.5242
  -0.500   0.0780   0.05091   0.02176  -0.0470  0.2500  0.2500  -0.8989   0.0000   0.8552
   0.000   0.1172   0.05124   0.02149  -0.0455  0.2500  0.2500  -0.7783   0.0000   0.6383
   0.500   0.1558   0.05180   0.02154  -0.0441  0.2500  0.2500  -0.6595   0.0000   0.5314
   1.000   0.1940   0.05259   0.02194  -0.0429  0.2500  0.2500  -0.6069   0.0000   0.4681
   1.500   0.2317   0.05362   0.02265  -0.0418  0.2500  0.2500  -0.6387   0.0000   0.4264
   2.000   0.2686   0.05487   0.02366  -0.0407  0.2500  0.2500  -0.6692   0.0000   0.3972
   2.500   0.3045   0.05635   0.02496  -0.0398  0.2500  0.2500  -0.7017   0.0000   0.3756
   3.000   0.3392   0.05808   0.02659  -0.0390  0.2500  0.2500  -0.7324   0.0000   0.3593
   3.500   0.3727   0.06007   0.02854  -0.0383  0.2500  0.2500  -0.7637   0.0000   0.3466
   4.000   0.4049   0.06232   0.03082  -0.0377  0.2500  0.2500  -0.7956   0.0000   0.3365
   4.500   0.4358   0.06484   0.03344  -0.0372  0.2500  0.2500  -0.8296   0.0000   0.3284
   5.000   0.4653   0.06765   0.03640  -0.0369  0.2500  0.2500  -0.8658   0.0000   0.3218
   5.500   0.4934   0.07074   0.03963  -0.0367  0.2500  0.2500  -0.9140   0.0000   0.3164
   6.000   0.5202   0.07410   0.04315  -0.0366  0.2500  0.2500  -0.9693   0.0000   0.3118
   6.500   0.5460   0.07770   0.04700  -0.0366  0.2500  0.2500  -1.0237   0.0000   0.3080
   7.000   0.5712   0.08150   0.05104  -0.0367  0.2500  0.2500  -1.0813   0.0000   0.3047
   7.500   0.5963   0.08548   0.05529  -0.0368  0.2500  0.2500  -1.1377   0.0000   0.3018
   8.000   0.6212   0.08964   0.05991  -0.0371  0.2500  0.2500  -1.1927   0.0000   0.2992
   8.500   0.6459   0.09398   0.06458  -0.0375  0.2500  0.2500  -1.2505   0.0000   0.2969
   9.000   0.6704   0.09846   0.06946  -0.0379  0.2500  0.2500  -1.3101   0.0000   0.2949
   9.500   0.6943   0.10311   0.07454  -0.0384  0.2500  0.2500  -1.3671   0.0000   0.2931
  10.000   0.7172   0.10802   0.07992  -0.0390  0.2500  0.2500  -1.4198   0.0000   0.2916
  10.500   0.7393   0.11334   0.08575  -0.0398  0.2500  0.2500  -1.4668   0.0000   0.2905
  11.000   0.7604   0.11912   0.09226  -0.0410  0.2500  0.2500  -1.5148   0.0000   0.2900
  11.500   0.7804   0.12544   0.09912  -0.0424  0.2500  0.2500  -1.5969   0.0000   0.2899
  12.000   0.7990   0.13235   0.10657  -0.0443  0.2500  0.2500  -1.7136   0.0000   0.2904
  12.500   0.8161   0.13988   0.11461  -0.0466  0.2500  0.2500  -1.8248   0.0000   0.2914
  13.000   0.8319   0.14796   0.12318  -0.0492  0.2500  0.2500  -1.9228   0.0000   0.2930
  13.500   0.8466   0.15650   0.13237  -0.0522  0.2500  0.2500  -2.0081   0.0000   0.2949
  14.000   0.8600   0.16538   0.14167  -0.0554  0.2500  0.2500  -2.0798   0.0000   0.2971
  14.500   0.8722   0.17446   0.15113  -0.0589  0.2500  0.2500  -2.1449   0.0000   0.2996
  15.000   0.8836   0.18359   0.16061  -0.0626  0.2500  0.2500  -2.2034   0.0000   0.3023
  15.500   0.8942   0.19263   0.16999  -0.0664  0.2500  0.2500  -2.2515   0.0000   0.3051
  16.000   0.9043   0.20147   0.17913  -0.0703  0.2500  0.2500  -2.2892   0.0000   0.3079
  16.500   0.9145   0.21019   0.18816  -0.0743  0.2500  0.2500  -2.3184   0.0000   0.3107
  17.000   0.9249   0.21884   0.19708  -0.0784  0.2500  0.2500  -2.3419   0.0000   0.3135
  17.500   0.9357   0.22741   0.20591  -0.0826  0.2500  0.2500  -2.3598   0.0000   0.3162
  18.000   0.9467   0.23592   0.21466  -0.0869  0.2500  0.2500  -2.3670   0.0000   0.3189
  18.500   0.9582   0.24437   0.22332  -0.0913  0.2500  0.2500  -2.3636   0.0000   0.3216
  19.000   0.9701   0.25274   0.23187  -0.0958  0.2500  0.2500  -2.3504   0.0000   0.3242
  19.500   0.9825   0.26101   0.24057  -0.1003  0.2500  0.2500  -2.3289   0.0000   0.3267
  20.000   0.9953   0.26914   0.24884  -0.1048  0.2500  0.2500  -2.3025   0.0000   0.3291


