xflr5 v6.42

 Calculated polar for: CLARK_Y

 1 1 Reynolds number fixed          Mach number fixed         

 xtrf =   0.250 (top)        0.250 (bottom)
 Mach =   0.000     Re =     0.020 e 6     Ncrit =   5.000

  alpha     CL        CD       CDp       Cm    Top Xtr Bot Xtr   Cpmin    Chinge    XCp    
 ------- -------- --------- --------- -------- ------- ------- -------- --------- ---------
 -10.000  -0.3689   0.12810   0.11396  -0.0358  0.2500  0.1695  -1.6245   0.0000   0.1413
  -9.500  -0.3546   0.12022   0.10607  -0.0376  0.2500  0.1668  -1.6149   0.0000   0.1325
  -9.000  -0.3454   0.11279   0.09868  -0.0400  0.2500  0.1636  -1.6236   0.0000   0.1233
  -8.500  -0.3409   0.10525   0.09122  -0.0431  0.2500  0.1577  -1.6560   0.0000   0.1133
  -8.000  -0.3486   0.09726   0.08338  -0.0486  0.2500  0.1512  -1.7561   0.0000   0.1014
  -7.500  -0.3566   0.08846   0.07452  -0.0560  0.2500  0.1458  -1.8953   0.0000   0.0844
  -7.000  -0.3459   0.08055   0.06651  -0.0587  0.2500  0.1446  -1.9071   0.0000   0.0721
  -6.500  -0.3335   0.07258   0.05830  -0.0618  0.2500  0.1441  -1.9372   0.0000   0.0569
  -6.000  -0.3167   0.06459   0.04971  -0.0653  0.2500  0.1465  -1.9723   0.0000   0.0360
  -5.500  -0.2846   0.05947   0.04445  -0.0645  0.2500  0.1564  -1.8395   0.0000   0.0157
  -5.000  -0.2483   0.05317   0.03735  -0.0664  0.2500  0.1633  -1.8009   0.0000  -0.0256
  -4.500  -0.2035   0.04746   0.03039  -0.0681  0.2500  0.1706  -1.7595   0.0000  -0.0937
  -4.000  -0.1568   0.04371   0.02611  -0.0676  0.2500  0.1893  -1.6522   0.0000  -0.1918
  -3.500  -0.1062   0.04041   0.02215  -0.0674  0.2500  0.2218  -1.5684   0.0000  -0.3977
  -3.000  -0.0513   0.03689   0.01820  -0.0667  0.2500  0.2500  -1.4908   0.0000  -1.0750
  -2.500   0.0022   0.03417   0.01483  -0.0654  0.2500  0.2500  -1.3959   0.0000  30.2007
  -2.000   0.0509   0.03335   0.01331  -0.0639  0.2500  0.2500  -1.2396   0.0000   1.5206
  -1.500   0.0993   0.03305   0.01239  -0.0626  0.2500  0.2500  -1.0914   0.0000   0.8861
  -1.000   0.1474   0.03296   0.01175  -0.0614  0.2500  0.2500  -0.9391   0.0000   0.6684
  -0.500   0.1954   0.03302   0.01139  -0.0603  0.2500  0.2500  -0.7872   0.0000   0.5583
   0.000   0.2429   0.03320   0.01122  -0.0591  0.2500  0.2500  -0.6418   0.0000   0.4920
   0.500   0.2900   0.03348   0.01124  -0.0580  0.2500  0.2500  -0.6842   0.0000   0.4476
   1.000   0.3365   0.03386   0.01144  -0.0568  0.2500  0.2500  -0.7264   0.0000   0.4157
   1.500   0.3823   0.03434   0.01180  -0.0555  0.2500  0.2500  -0.7714   0.0000   0.3917
   2.000   0.4275   0.03491   0.01232  -0.0543  0.2500  0.2500  -0.8168   0.0000   0.3728
   2.500   0.4718   0.03559   0.01302  -0.0530  0.2500  0.2500  -0.8618   0.0000   0.3576
   3.000   0.5153   0.03636   0.01386  -0.0516  0.2500  0.2500  -0.9071   0.0000   0.3450
   3.500   0.5577   0.03725   0.01488  -0.0502  0.2500  0.2500  -0.9553   0.0000   0.3344
   4.000   0.5989   0.03826   0.01612  -0.0487  0.2500  0.2500  -1.0077   0.0000   0.3253
   4.500   0.6384   0.03940   0.01749  -0.0471  0.2500  0.2500  -1.0791   0.0000   0.3172
   5.000   0.6764   0.04070   0.01907  -0.0455  0.2500  0.2500  -1.1675   0.0000   0.3101
   5.500   0.7130   0.04217   0.02095  -0.0439  0.2500  0.2500  -1.2612   0.0000   0.3039
   6.000   0.7485   0.04387   0.02304  -0.0424  0.2500  0.2500  -1.3543   0.0000   0.2984
   6.500   0.7828   0.04582   0.02543  -0.0410  0.2500  0.2500  -1.4461   0.0000   0.2937
   7.000   0.8153   0.04805   0.02822  -0.0397  0.2500  0.2500  -1.5353   0.0000   0.2894
   7.500   0.8455   0.05059   0.03129  -0.0385  0.2500  0.2500  -1.6279   0.0000   0.2857
   8.000   0.8733   0.05352   0.03479  -0.0375  0.2500  0.2500  -1.7203   0.0000   0.2824
   8.500   0.8984   0.05687   0.03882  -0.0366  0.2500  0.2500  -1.8070   0.0000   0.2795
   9.000   0.9209   0.06073   0.04329  -0.0359  0.2500  0.2500  -1.8866   0.0000   0.2771
   9.500   0.9403   0.06521   0.04838  -0.0354  0.2500  0.2500  -2.0362   0.0000   0.2752
  10.000   0.9567   0.07032   0.05409  -0.0351  0.2500  0.2500  -2.2142   0.0000   0.2736
  10.500   0.9699   0.07625   0.06069  -0.0352  0.2500  0.2500  -2.3758   0.0000   0.2725
  11.000   0.9782   0.08359   0.06859  -0.0359  0.2500  0.2500  -2.5053   0.0000   0.2723
  11.500   0.9758   0.09384   0.07932  -0.0380  0.2500  0.2500  -2.5615   0.0000   0.2741
  12.000   0.9609   0.10754   0.09334  -0.0421  0.2500  0.2500  -2.5242   0.0000   0.2785
  12.500   0.9420   0.12223   0.10824  -0.0470  0.2500  0.2500  -2.4478   0.0000   0.2842
  13.000   0.9265   0.13607   0.12225  -0.0519  0.2500  0.2500  -2.3809   0.0000   0.2899
  13.500   0.9159   0.14875   0.13508  -0.0565  0.2500  0.2500  -2.3348   0.0000   0.2952
  14.000   0.9095   0.16038   0.14689  -0.0609  0.2500  0.2500  -2.3071   0.0000   0.2999
  14.500   0.9050   0.17097   0.15764  -0.0650  0.2484  0.2500  -2.2879   0.0000   0.3042
  15.000   0.9298   0.17704   0.16404  -0.0647  0.2321  0.2500  -2.4587   0.0000   0.3012
  15.500   0.9153   0.18681   0.17389  -0.0700  0.2258  0.2500  -2.3792   0.0000   0.3074
  16.000   0.9154   0.19602   0.18327  -0.0741  0.2228  0.2500  -2.3692   0.0000   0.3112
  16.500   0.9319   0.20338   0.19090  -0.0754  0.2065  0.2500  -2.4711   0.0000   0.3103
  17.000   0.9293   0.21189   0.19960  -0.0801  0.1991  0.2500  -2.4096   0.0000   0.3149
  17.500   0.9405   0.21930   0.20716  -0.0825  0.1805  0.2500  -2.4349   0.0000   0.3155
  18.000   0.9531   0.22664   0.21461  -0.0847  0.1607  0.2500  -2.4550   0.0000   0.3158
  18.500   0.9687   0.23386   0.22192  -0.0864  0.1411  0.2500  -2.4956   0.0000   0.3153
  19.000   0.9682   0.24195   0.22999  -0.0927  0.1336  0.2500  -2.3747   0.0000   0.3209
  19.500   0.9781   0.25072   0.23881  -0.0972  0.1295  0.2500  -2.3158   0.0000   0.3237
  20.000   0.9966   0.25912   0.24728  -0.0991  0.1192  0.2500  -2.3558   0.0000   0.3229


