xflr5 v6.42

 Calculated polar for: clarky

 1 1 Reynolds number fixed          Mach number fixed         

 xtrf =   0.250 (top)        0.250 (bottom)
 Mach =   0.000     Re =     0.550 e 6     Ncrit =   5.000

  alpha     CL        CD       CDp       Cm    Top Xtr Bot Xtr   Cpmin    Chinge    XCp    
 ------- -------- --------- --------- -------- ------- ------- -------- --------- ---------
 -10.000  -0.6802   0.02654   0.01994  -0.0852  0.2500  0.0218  -6.6649   0.0000   0.1130
  -9.500  -0.6359   0.02499   0.01817  -0.0846  0.2500  0.0226  -6.1095   0.0000   0.1056
  -9.000  -0.5903   0.02343   0.01634  -0.0839  0.2500  0.0234  -5.5731   0.0000   0.0968
  -8.500  -0.5434   0.02188   0.01448  -0.0832  0.2500  0.0242  -5.0669   0.0000   0.0860
  -8.000  -0.4945   0.02063   0.01299  -0.0827  0.2500  0.0253  -4.6199   0.0000   0.0722
  -7.500  -0.4457   0.01909   0.01115  -0.0820  0.2500  0.0259  -4.2449   0.0000   0.0555
  -7.000  -0.3956   0.01773   0.00953  -0.0813  0.2500  0.0265  -3.8738   0.0000   0.0338
  -6.500  -0.3443   0.01661   0.00820  -0.0807  0.2500  0.0272  -3.5047   0.0000   0.0048
  -6.000  -0.2927   0.01554   0.00691  -0.0800  0.2500  0.0277  -3.2097   0.0000  -0.0348
  -5.500  -0.2403   0.01471   0.00592  -0.0795  0.2500  0.0284  -2.9328   0.0000  -0.0930
  -5.000  -0.1869   0.01411   0.00519  -0.0790  0.2500  0.0293  -2.6855   0.0000  -0.1865
  -4.500  -0.1328   0.01369   0.00465  -0.0787  0.2500  0.0300  -2.4293   0.0000  -0.3590
  -4.000  -0.0799   0.01296   0.00382  -0.0782  0.2500  0.0324  -2.2105   0.0000  -0.7521
  -3.500  -0.0256   0.01256   0.00336  -0.0779  0.2500  0.0344  -1.9669   0.0000  -2.8560
  -3.000   0.0292   0.01227   0.00299  -0.0776  0.2500  0.0360  -1.7255   0.0000   2.9537
  -2.500   0.0842   0.01204   0.00270  -0.0774  0.2500  0.0376  -1.4916   0.0000   1.1806
  -2.000   0.1393   0.01186   0.00247  -0.0771  0.2500  0.0394  -1.2662   0.0000   0.8085
  -1.500   0.1943   0.01165   0.00229  -0.0769  0.2500  0.0494  -1.0521   0.0000   0.6478
  -1.000   0.2488   0.01136   0.00218  -0.0767  0.2500  0.0981  -0.8462   0.0000   0.5586
  -0.500   0.3030   0.01106   0.00212  -0.0765  0.2500  0.1740  -0.6758   0.0000   0.5017
   0.000   0.3575   0.01085   0.00213  -0.0763  0.2500  0.2500  -0.7272   0.0000   0.4619
   0.500   0.4132   0.01092   0.00215  -0.0762  0.2500  0.2500  -0.7798   0.0000   0.4322
   1.000   0.4687   0.01101   0.00220  -0.0761  0.2500  0.2500  -0.8329   0.0000   0.4095
   1.500   0.5241   0.01111   0.00228  -0.0759  0.2500  0.2500  -0.8864   0.0000   0.3915
   2.000   0.5792   0.01122   0.00239  -0.0757  0.2500  0.2500  -0.9424   0.0000   0.3769
   2.500   0.6342   0.01135   0.00254  -0.0755  0.2500  0.2500  -1.0006   0.0000   0.3648
   3.000   0.6889   0.01149   0.00271  -0.0753  0.2500  0.2500  -1.0592   0.0000   0.3546
   3.500   0.7434   0.01164   0.00291  -0.0751  0.2500  0.2500  -1.1283   0.0000   0.3458
   4.000   0.7975   0.01181   0.00314  -0.0748  0.2500  0.2500  -1.2466   0.0000   0.3381
   4.500   0.8514   0.01199   0.00339  -0.0745  0.2500  0.2500  -1.3712   0.0000   0.3313
   5.000   0.9049   0.01219   0.00370  -0.0741  0.2500  0.2500  -1.5075   0.0000   0.3252
   5.500   0.9580   0.01241   0.00402  -0.0737  0.2500  0.2500  -1.6466   0.0000   0.3197
   6.000   1.0107   0.01264   0.00437  -0.0732  0.2500  0.2500  -1.7909   0.0000   0.3146
   6.500   1.0628   0.01290   0.00479  -0.0727  0.2500  0.2500  -1.9511   0.0000   0.3100
   7.000   1.1091   0.01358   0.00533  -0.0713  0.2102  0.2500  -2.1056   0.0000   0.3053
   7.500   1.1488   0.01472   0.00616  -0.0691  0.1516  0.2500  -2.3509   0.0000   0.3005
   8.000   1.1877   0.01586   0.00713  -0.0666  0.1098  0.2500  -2.6838   0.0000   0.2958
   8.500   1.2265   0.01690   0.00807  -0.0643  0.0849  0.2500  -3.0315   0.0000   0.2914
   9.000   1.2650   0.01779   0.00896  -0.0617  0.0693  0.2500  -3.4110   0.0000   0.2872
   9.500   1.2967   0.01892   0.01003  -0.0582  0.0516  0.2500  -3.7788   0.0000   0.2825
  10.000   1.3171   0.02095   0.01184  -0.0535  0.0189  0.2500  -4.1021   0.0000   0.2775
  10.500   1.3458   0.02243   0.01340  -0.0501  0.0145  0.2500  -4.4678   0.0000   0.2734
  11.000   1.3739   0.02396   0.01514  -0.0469  0.0120  0.2500  -4.8751   0.0000   0.2695
  11.500   1.4006   0.02564   0.01699  -0.0440  0.0112  0.2500  -5.3040   0.0000   0.2659
  12.000   1.4232   0.02769   0.01924  -0.0409  0.0104  0.2500  -5.7196   0.0000   0.2624
  12.500   1.4413   0.03021   0.02193  -0.0379  0.0096  0.2500  -6.1212   0.0000   0.2590
  13.000   1.4535   0.03341   0.02532  -0.0350  0.0088  0.2500  -6.4921   0.0000   0.2559
  13.500   1.4548   0.03785   0.03001  -0.0323  0.0081  0.2500  -6.7805   0.0000   0.2530
  14.000   1.4645   0.04177   0.03414  -0.0306  0.0079  0.2500  -7.1454   0.0000   0.2507
  14.500   1.4698   0.04638   0.03896  -0.0294  0.0077  0.2500  -7.4828   0.0000   0.2488
  15.000   1.4708   0.05180   0.04460  -0.0288  0.0074  0.2500  -7.7889   0.0000   0.2473
  15.500   1.4670   0.05818   0.05121  -0.0289  0.0070  0.2500  -8.0565   0.0000   0.2463
  16.000   1.4585   0.06562   0.05889  -0.0299  0.0067  0.2500  -8.2803   0.0000   0.2460
  16.500   1.4447   0.07416   0.06767  -0.0316  0.0065  0.2500  -8.4531   0.0000   0.2462
  17.000   1.4264   0.08385   0.07762  -0.0341  0.0063  0.2500  -8.5738   0.0000   0.2472
  17.500   1.4044   0.09442   0.08844  -0.0374  0.0061  0.2500  -8.6451   0.0000   0.2487
  18.000   1.3808   0.10564   0.09990  -0.0414  0.0060  0.2500  -8.6824   0.0000   0.2509
  18.500   1.3569   0.11712   0.11161  -0.0458  0.0058  0.2500  -8.6958   0.0000   0.2536
  19.000   1.3338   0.12873   0.12343  -0.0507  0.0057  0.2500  -8.6935   0.0000   0.2568
  19.500   1.3144   0.13997   0.13487  -0.0559  0.0056  0.2500  -8.7035   0.0000   0.2602
  20.000   1.2974   0.15100   0.14609  -0.0613  0.0054  0.2500  -8.7132   0.0000   0.2639


