xflr5 v6.42

 Calculated polar for: CLARK_Y

 1 1 Reynolds number fixed          Mach number fixed         

 xtrf =   0.250 (top)        0.250 (bottom)
 Mach =   0.000     Re =     0.400 e 6     Ncrit =   5.000

  alpha     CL        CD       CDp       Cm    Top Xtr Bot Xtr   Cpmin    Chinge    XCp    
 ------- -------- --------- --------- -------- ------- ------- -------- --------- ---------
 -10.000  -0.6515   0.03409   0.02764  -0.0845  0.2500  0.0232  -6.1573   0.0000   0.1086
  -9.500  -0.6269   0.02907   0.02202  -0.0838  0.2500  0.0242  -5.8820   0.0000   0.1052
  -9.000  -0.5861   0.02670   0.01937  -0.0831  0.2500  0.0251  -5.4313   0.0000   0.0973
  -8.500  -0.5398   0.02526   0.01770  -0.0826  0.2500  0.0262  -4.9547   0.0000   0.0863
  -8.000  -0.4925   0.02368   0.01583  -0.0821  0.2500  0.0274  -4.5384   0.0000   0.0729
  -7.500  -0.4451   0.02171   0.01351  -0.0814  0.2500  0.0282  -4.1606   0.0000   0.0566
  -7.000  -0.3954   0.02011   0.01160  -0.0808  0.2500  0.0293  -3.7919   0.0000   0.0350
  -6.500  -0.3443   0.01881   0.01001  -0.0803  0.2500  0.0304  -3.4525   0.0000   0.0059
  -6.000  -0.2924   0.01762   0.00857  -0.0798  0.2500  0.0312  -3.1351   0.0000  -0.0343
  -5.500  -0.2395   0.01670   0.00746  -0.0794  0.2500  0.0318  -2.8452   0.0000  -0.0937
  -5.000  -0.1873   0.01555   0.00612  -0.0789  0.2500  0.0329  -2.6173   0.0000  -0.1847
  -4.500  -0.1345   0.01464   0.00506  -0.0784  0.2500  0.0344  -2.3953   0.0000  -0.3494
  -4.000  -0.0806   0.01403   0.00434  -0.0781  0.2500  0.0360  -2.1597   0.0000  -0.7421
  -3.500  -0.0261   0.01357   0.00380  -0.0779  0.2500  0.0381  -1.9227   0.0000  -2.7941
  -3.000   0.0288   0.01322   0.00337  -0.0777  0.2500  0.0412  -1.6885   0.0000   2.9883
  -2.500   0.0840   0.01292   0.00299  -0.0775  0.2500  0.0451  -1.4672   0.0000   1.1838
  -2.000   0.1390   0.01260   0.00274  -0.0773  0.2500  0.0633  -1.2502   0.0000   0.8111
  -1.500   0.1940   0.01236   0.00256  -0.0772  0.2500  0.0969  -1.0487   0.0000   0.6497
  -1.000   0.2486   0.01203   0.00245  -0.0771  0.2500  0.1637  -0.8709   0.0000   0.5603
  -0.500   0.3032   0.01175   0.00242  -0.0770  0.2500  0.2500  -0.6974   0.0000   0.5031
   0.000   0.3590   0.01181   0.00240  -0.0769  0.2500  0.2500  -0.7273   0.0000   0.4625
   0.500   0.4147   0.01189   0.00242  -0.0768  0.2500  0.2500  -0.7784   0.0000   0.4329
   1.000   0.4702   0.01198   0.00247  -0.0766  0.2500  0.2500  -0.8325   0.0000   0.4102
   1.500   0.5255   0.01210   0.00256  -0.0765  0.2500  0.2500  -0.8884   0.0000   0.3923
   2.000   0.5806   0.01222   0.00269  -0.0763  0.2500  0.2500  -0.9447   0.0000   0.3777
   2.500   0.6354   0.01237   0.00285  -0.0761  0.2500  0.2500  -1.0014   0.0000   0.3656
   3.000   0.6900   0.01253   0.00305  -0.0759  0.2500  0.2500  -1.0585   0.0000   0.3553
   3.500   0.7443   0.01270   0.00328  -0.0756  0.2500  0.2500  -1.1277   0.0000   0.3464
   4.000   0.7982   0.01290   0.00355  -0.0753  0.2500  0.2500  -1.2484   0.0000   0.3387
   4.500   0.8518   0.01311   0.00384  -0.0750  0.2500  0.2500  -1.3718   0.0000   0.3318
   5.000   0.9049   0.01334   0.00418  -0.0746  0.2500  0.2500  -1.4989   0.0000   0.3257
   5.500   0.9576   0.01359   0.00457  -0.0741  0.2500  0.2500  -1.6438   0.0000   0.3201
   6.000   1.0097   0.01387   0.00498  -0.0735  0.2500  0.2500  -1.7914   0.0000   0.3150
   6.500   1.0613   0.01417   0.00546  -0.0729  0.2500  0.2500  -1.9413   0.0000   0.3103
   7.000   1.1123   0.01450   0.00597  -0.0721  0.2500  0.2500  -2.0931   0.0000   0.3059
   7.500   1.1579   0.01517   0.00657  -0.0707  0.2176  0.2500  -2.4038   0.0000   0.3014
   8.000   1.1948   0.01641   0.00752  -0.0680  0.1583  0.2500  -2.7173   0.0000   0.2966
   8.500   1.2294   0.01774   0.00866  -0.0650  0.1153  0.2500  -3.0333   0.0000   0.2919
   9.000   1.2643   0.01885   0.00973  -0.0620  0.0935  0.2500  -3.3939   0.0000   0.2874
   9.500   1.2951   0.01998   0.01089  -0.0583  0.0777  0.2500  -3.7621   0.0000   0.2826
  10.000   1.3256   0.02133   0.01224  -0.0549  0.0620  0.2500  -4.1385   0.0000   0.2783
  10.500   1.3428   0.02361   0.01430  -0.0503  0.0258  0.2500  -4.4582   0.0000   0.2736
  11.000   1.3596   0.02597   0.01669  -0.0460  0.0161  0.2500  -4.7759   0.0000   0.2691
  11.500   1.3791   0.02828   0.01917  -0.0424  0.0134  0.2500  -5.1038   0.0000   0.2652
  12.000   1.3998   0.03060   0.02173  -0.0395  0.0125  0.2500  -5.4545   0.0000   0.2618
  12.500   1.4155   0.03348   0.02484  -0.0367  0.0114  0.2500  -5.7876   0.0000   0.2586
  13.000   1.4257   0.03703   0.02860  -0.0341  0.0104  0.2500  -6.0984   0.0000   0.2557
  13.500   1.4275   0.04169   0.03349  -0.0319  0.0096  0.2500  -6.3514   0.0000   0.2531
  14.000   1.4233   0.04730   0.03936  -0.0303  0.0091  0.2500  -6.5571   0.0000   0.2510
  14.500   1.4226   0.05298   0.04530  -0.0297  0.0088  0.2500  -6.7938   0.0000   0.2496
  15.000   1.4165   0.05970   0.05228  -0.0298  0.0086  0.2500  -6.9890   0.0000   0.2487
  15.500   1.4060   0.06749   0.06034  -0.0309  0.0084  0.2500  -7.1465   0.0000   0.2485
  16.000   1.3915   0.07636   0.06947  -0.0328  0.0081  0.2500  -7.2912   0.0000   0.2490
  16.500   1.3730   0.08614   0.07951  -0.0354  0.0080  0.2500  -7.3954   0.0000   0.2502
  17.000   1.3527   0.09666   0.09028  -0.0388  0.0078  0.2500  -7.4682   0.0000   0.2519
  17.500   1.3318   0.10760   0.10146  -0.0427  0.0076  0.2500  -7.5193   0.0000   0.2543
  18.000   1.3120   0.11844   0.11252  -0.0468  0.0075  0.2500  -7.5629   0.0000   0.2568
  18.500   1.2939   0.12924   0.12353  -0.0513  0.0073  0.2500  -7.6036   0.0000   0.2597
  19.000   1.2788   0.13972   0.13421  -0.0560  0.0072  0.2500  -7.6548   0.0000   0.2628
  19.500   1.2669   0.14982   0.14448  -0.0609  0.0070  0.2500  -7.7187   0.0000   0.2659
  20.000   1.2567   0.15974   0.15457  -0.0659  0.0069  0.2500  -7.7812   0.0000   0.2692


