xflr5 v6.42

 Calculated polar for: CLARK_Y

 1 1 Reynolds number fixed          Mach number fixed         

 xtrf =   0.250 (top)        0.250 (bottom)
 Mach =   0.000     Re =     1.500 e 6     Ncrit =   5.000

  alpha     CL        CD       CDp       Cm    Top Xtr Bot Xtr   Cpmin    Chinge    XCp    
 ------- -------- --------- --------- -------- ------- ------- -------- --------- ---------
 -10.000  -0.7356   0.01509   0.00843  -0.0804  0.2500  0.0185  -7.3040   0.0000   0.1290
  -9.500  -0.6820   0.01462   0.00790  -0.0802  0.2500  0.0193  -6.6782   0.0000   0.1211
  -9.000  -0.6279   0.01419   0.00740  -0.0800  0.2500  0.0200  -6.0743   0.0000   0.1115
  -8.500  -0.5737   0.01374   0.00687  -0.0799  0.2500  0.0207  -5.5073   0.0000   0.1000
  -8.000  -0.5197   0.01320   0.00622  -0.0797  0.2500  0.0213  -5.0105   0.0000   0.0861
  -7.500  -0.4647   0.01282   0.00577  -0.0796  0.2500  0.0221  -4.5221   0.0000   0.0682
  -7.000  -0.4096   0.01244   0.00530  -0.0795  0.2500  0.0227  -4.0964   0.0000   0.0453
  -6.500  -0.3544   0.01204   0.00481  -0.0794  0.2500  0.0231  -3.7028   0.0000   0.0152
  -6.000  -0.2989   0.01170   0.00440  -0.0793  0.2500  0.0233  -3.3823   0.0000  -0.0267
  -5.500  -0.2434   0.01131   0.00393  -0.0793  0.2500  0.0236  -3.0848   0.0000  -0.0878
  -5.000  -0.1884   0.01078   0.00327  -0.0791  0.2500  0.0248  -2.8184   0.0000  -0.1837
  -4.500  -0.1325   0.01044   0.00287  -0.0791  0.2500  0.0256  -2.5418   0.0000  -0.3639
  -4.000  -0.0762   0.01018   0.00256  -0.0791  0.2500  0.0265  -2.2687   0.0000  -0.8131
  -3.500  -0.0197   0.00997   0.00231  -0.0792  0.2500  0.0275  -2.0031   0.0000  -3.8401
  -3.000   0.0369   0.00979   0.00210  -0.0792  0.2500  0.0288  -1.7467   0.0000   2.4339
  -2.500   0.0936   0.00965   0.00193  -0.0793  0.2500  0.0304  -1.4994   0.0000   1.1079
  -2.000   0.1504   0.00955   0.00181  -0.0794  0.2500  0.0317  -1.2602   0.0000   0.7826
  -1.500   0.2072   0.00946   0.00170  -0.0795  0.2500  0.0346  -1.0412   0.0000   0.6357
  -1.000   0.2639   0.00936   0.00164  -0.0796  0.2500  0.0414  -0.8588   0.0000   0.5520
  -0.500   0.3203   0.00918   0.00158  -0.0797  0.2500  0.0760  -0.6855   0.0000   0.4982
   0.000   0.3769   0.00909   0.00157  -0.0799  0.2500  0.1033  -0.7368   0.0000   0.4604
   0.500   0.4329   0.00886   0.00158  -0.0800  0.2500  0.1838  -0.7887   0.0000   0.4327
   1.000   0.4892   0.00874   0.00164  -0.0802  0.2500  0.2500  -0.8448   0.0000   0.4111
   1.500   0.5460   0.00881   0.00170  -0.0803  0.2500  0.2500  -0.9020   0.0000   0.3938
   2.000   0.6027   0.00889   0.00178  -0.0804  0.2500  0.2500  -0.9597   0.0000   0.3797
   2.500   0.6593   0.00898   0.00188  -0.0806  0.2500  0.2500  -1.0178   0.0000   0.3680
   3.000   0.7156   0.00907   0.00200  -0.0807  0.2500  0.2500  -1.0764   0.0000   0.3581
   3.500   0.7718   0.00918   0.00214  -0.0807  0.2500  0.2500  -1.1609   0.0000   0.3495
   4.000   0.8277   0.00929   0.00230  -0.0808  0.2500  0.2500  -1.2851   0.0000   0.3420
   4.500   0.8834   0.00941   0.00247  -0.0808  0.2500  0.2500  -1.4123   0.0000   0.3354
   5.000   0.9389   0.00955   0.00267  -0.0808  0.2500  0.2500  -1.5517   0.0000   0.3294
   5.500   0.9912   0.00994   0.00297  -0.0804  0.2240  0.2500  -1.6983   0.0000   0.3239
   6.000   1.0401   0.01058   0.00341  -0.0794  0.1811  0.2500  -1.8432   0.0000   0.3185
   7.000   1.1312   0.01231   0.00469  -0.0764  0.0917  0.2500  -2.1564   0.0000   0.3086
   7.500   1.1789   0.01293   0.00525  -0.0752  0.0740  0.2500  -2.4975   0.0000   0.3042
   8.000   1.2257   0.01358   0.00585  -0.0739  0.0592  0.2500  -2.8517   0.0000   0.3001
   8.500   1.2654   0.01469   0.00677  -0.0716  0.0301  0.2500  -3.2078   0.0000   0.2956
   9.000   1.3040   0.01578   0.00779  -0.0690  0.0129  0.2500  -3.6050   0.0000   0.2913
   9.500   1.3454   0.01655   0.00862  -0.0669  0.0107  0.2500  -4.0364   0.0000   0.2874
  10.000   1.3815   0.01730   0.00944  -0.0638  0.0090  0.2500  -4.4602   0.0000   0.2831
  10.500   1.4166   0.01812   0.01033  -0.0607  0.0082  0.2500  -4.8980   0.0000   0.2790
  11.000   1.4503   0.01914   0.01142  -0.0577  0.0073  0.2500  -5.3430   0.0000   0.2751
  11.500   1.4806   0.02036   0.01271  -0.0544  0.0063  0.2500  -5.7807   0.0000   0.2712
  12.000   1.5089   0.02174   0.01419  -0.0511  0.0058  0.2500  -6.2164   0.0000   0.2675
  12.500   1.5367   0.02320   0.01575  -0.0481  0.0056  0.2500  -6.6696   0.0000   0.2641
  13.000   1.5617   0.02492   0.01759  -0.0451  0.0053  0.2500  -7.1176   0.0000   0.2607
  13.500   1.5840   0.02695   0.01973  -0.0421  0.0051  0.2500  -7.5584   0.0000   0.2575
  14.000   1.6036   0.02932   0.02222  -0.0394  0.0048  0.2500  -7.9932   0.0000   0.2545
  14.500   1.6198   0.03207   0.02509  -0.0369  0.0045  0.2500  -8.4281   0.0000   0.2517
  15.000   1.6323   0.03537   0.02850  -0.0347  0.0042  0.2500  -8.8760   0.0000   0.2491
  15.500   1.6406   0.03924   0.03251  -0.0327  0.0039  0.2500  -9.2951   0.0000   0.2467
  16.000   1.6425   0.04400   0.03745  -0.0312  0.0037  0.2500  -9.6628   0.0000   0.2446
  16.500   1.6392   0.04976   0.04340  -0.0303  0.0035  0.2500  -9.9823   0.0000   0.2430
  17.000   1.6311   0.05645   0.05029  -0.0301  0.0034  0.2500  -10.2608   0.0000   0.2418
  17.500   1.6232   0.06353   0.05756  -0.0308  0.0033  0.2500  -10.5457   0.0000   0.2410
  18.000   1.6111   0.07155   0.06577  -0.0321  0.0033  0.2500  -10.7866   0.0000   0.2408
  18.500   1.5938   0.08059   0.07501  -0.0341  0.0033  0.2500  -10.9689   0.0000   0.2410
  19.000   1.5692   0.09100   0.08563  -0.0371  0.0033  0.2500  -11.0670   0.0000   0.2419
  19.500   1.5403   0.10254   0.09739  -0.0409  0.0032  0.2500  -11.1009   0.0000   0.2436
  20.000   1.5072   0.11501   0.11008  -0.0456  0.0032  0.2500  -11.0649   0.0000   0.2461


