xflr5 v6.42

 Calculated polar for: clarky

 1 1 Reynolds number fixed          Mach number fixed         

 xtrf =   0.250 (top)        0.250 (bottom)
 Mach =   0.000     Re =     0.100 e 6     Ncrit =   5.000

  alpha     CL        CD       CDp       Cm    Top Xtr Bot Xtr   Cpmin    Chinge    XCp    
 ------- -------- --------- --------- -------- ------- ------- -------- --------- ---------
 -10.000  -0.3736   0.10152   0.09348  -0.0470  0.2500  0.0495  -2.2475   0.0000   0.1113
  -9.500  -0.3676   0.09364   0.08562  -0.0501  0.2500  0.0489  -2.2709   0.0000   0.1014
  -9.000  -0.3675   0.08467   0.07669  -0.0550  0.2500  0.0483  -2.3586   0.0000   0.0887
  -8.500  -0.3765   0.07364   0.06574  -0.0635  0.2500  0.0478  -2.5388   0.0000   0.0705
  -8.000  -0.3947   0.05762   0.04946  -0.0769  0.2500  0.0472  -2.9133   0.0000   0.0450
  -7.500  -0.3977   0.04537   0.03623  -0.0816  0.2500  0.0491  -3.1486   0.0000   0.0350
  -7.000  -0.3719   0.03850   0.02847  -0.0816  0.2500  0.0494  -3.1044   0.0000   0.0208
  -6.500  -0.3351   0.03346   0.02253  -0.0807  0.2500  0.0497  -2.9641   0.0000  -0.0011
  -6.000  -0.2915   0.02971   0.01816  -0.0798  0.2500  0.0506  -2.7533   0.0000  -0.0345
  -5.500  -0.2437   0.02721   0.01534  -0.0791  0.2500  0.0523  -2.5415   0.0000  -0.0858
  -5.000  -0.1939   0.02521   0.01297  -0.0783  0.2500  0.0550  -2.3308   0.0000  -0.1663
  -4.500  -0.1428   0.02352   0.01094  -0.0774  0.2500  0.0584  -2.1463   0.0000  -0.3071
  -4.000  -0.0925   0.02188   0.00915  -0.0766  0.2500  0.0633  -1.9780   0.0000  -0.5980
  -3.500  -0.0411   0.02094   0.00812  -0.0759  0.2500  0.0727  -1.7783   0.0000  -1.6310
  -3.000   0.0102   0.01993   0.00689  -0.0749  0.2500  0.0805  -1.6102   0.0000   7.6974
  -2.500   0.0609   0.01885   0.00587  -0.0739  0.2500  0.1061  -1.4399   0.0000   1.4797
  -2.000   0.1121   0.01802   0.00529  -0.0732  0.2500  0.1821  -1.2525   0.0000   0.9095
  -1.500   0.1646   0.01761   0.00495  -0.0726  0.2500  0.2500  -1.0543   0.0000   0.6936
  -1.000   0.2187   0.01760   0.00465  -0.0721  0.2500  0.2500  -0.8595   0.0000   0.5800
  -0.500   0.2727   0.01765   0.00447  -0.0715  0.2500  0.2500  -0.7045   0.0000   0.5116
   0.000   0.3266   0.01774   0.00438  -0.0711  0.2500  0.2500  -0.7051   0.0000   0.4660
   0.500   0.3801   0.01786   0.00438  -0.0705  0.2500  0.2500  -0.7557   0.0000   0.4333
   1.000   0.4334   0.01802   0.00444  -0.0700  0.2500  0.2500  -0.8067   0.0000   0.4086
   1.500   0.4864   0.01821   0.00457  -0.0694  0.2500  0.2500  -0.8580   0.0000   0.3894
   2.000   0.5390   0.01843   0.00477  -0.0688  0.2500  0.2500  -0.9113   0.0000   0.3738
   2.500   0.5913   0.01868   0.00504  -0.0682  0.2500  0.2500  -0.9668   0.0000   0.3610
   3.000   0.6432   0.01896   0.00537  -0.0675  0.2500  0.2500  -1.0225   0.0000   0.3501
   3.500   0.6946   0.01927   0.00575  -0.0668  0.2500  0.2500  -1.0820   0.0000   0.3408
   4.000   0.7456   0.01962   0.00622  -0.0660  0.2500  0.2500  -1.1815   0.0000   0.3327
   4.500   0.7960   0.02000   0.00673  -0.0651  0.2500  0.2500  -1.2961   0.0000   0.3255
   5.000   0.8459   0.02041   0.00735  -0.0642  0.2500  0.2500  -1.4182   0.0000   0.3191
   5.500   0.8951   0.02087   0.00799  -0.0632  0.2500  0.2500  -1.5480   0.0000   0.3132
   6.000   0.9437   0.02137   0.00871  -0.0621  0.2500  0.2500  -1.6794   0.0000   0.3079
   6.500   0.9915   0.02192   0.00951  -0.0609  0.2500  0.2500  -1.8121   0.0000   0.3030
   7.000   1.0386   0.02253   0.01046  -0.0596  0.2500  0.2500  -1.9481   0.0000   0.2984
   7.500   1.0848   0.02319   0.01144  -0.0582  0.2500  0.2500  -2.0968   0.0000   0.2940
   8.000   1.1302   0.02393   0.01253  -0.0567  0.2500  0.2500  -2.4078   0.0000   0.2899
   8.500   1.1747   0.02475   0.01380  -0.0551  0.2500  0.2500  -2.7553   0.0000   0.2860
   9.000   1.2186   0.02568   0.01516  -0.0535  0.2500  0.2500  -3.1155   0.0000   0.2822
   9.500   1.2553   0.02686   0.01664  -0.0508  0.2404  0.2500  -3.4804   0.0000   0.2781
  10.000   1.2740   0.02849   0.01828  -0.0460  0.1992  0.2500  -3.7859   0.0000   0.2730
  10.500   1.2888   0.03081   0.02051  -0.0416  0.1627  0.2500  -4.0781   0.0000   0.2683
  11.000   1.3018   0.03354   0.02325  -0.0375  0.1385  0.2500  -4.3635   0.0000   0.2641
  11.500   1.3148   0.03648   0.02644  -0.0341  0.1221  0.2500  -4.6486   0.0000   0.2603
  12.000   1.3260   0.03975   0.02993  -0.0311  0.1066  0.2500  -4.9254   0.0000   0.2570
  12.500   1.3323   0.04367   0.03407  -0.0285  0.0931  0.2500  -5.1960   0.0000   0.2541
  13.000   1.3293   0.04879   0.03933  -0.0266  0.0794  0.2500  -5.4191   0.0000   0.2517
  13.500   1.3258   0.05448   0.04526  -0.0256  0.0613  0.2500  -5.6282   0.0000   0.2500
  14.000   1.3128   0.06172   0.05269  -0.0255  0.0452  0.2500  -5.7656   0.0000   0.2491
  14.500   1.2919   0.07067   0.06183  -0.0267  0.0369  0.2500  -5.8380   0.0000   0.2493
  15.000   1.2678   0.08091   0.07230  -0.0292  0.0325  0.2500  -5.8699   0.0000   0.2507
  16.000   1.2162   0.10396   0.09586  -0.0370  0.0287  0.2500  -5.8435   0.0000   0.2561
  16.500   1.1961   0.11511   0.10729  -0.0412  0.0274  0.2500  -5.8379   0.0000   0.2592
  17.000   1.1792   0.12594   0.11845  -0.0455  0.0263  0.2500  -5.8362   0.0000   0.2624
  17.500   1.1658   0.13640   0.12917  -0.0500  0.0251  0.2500  -5.8412   0.0000   0.2658
  18.000   1.1542   0.14682   0.13982  -0.0548  0.0240  0.2500  -5.8396   0.0000   0.2694
  18.500   1.1432   0.15757   0.15079  -0.0602  0.0229  0.2500  -5.8164   0.0000   0.2737
  19.000   1.1332   0.16854   0.16195  -0.0662  0.0217  0.2500  -5.7715   0.0000   0.2785
  19.500   1.1237   0.17979   0.17338  -0.0724  0.0206  0.2500  -5.6834   0.0000   0.2837
  20.000   1.1027   0.19572   0.18958  -0.0817  0.0201  0.2500  -5.3306   0.0000   0.2929


