xflr5 v6.42

 Calculated polar for: CLARK_Y

 1 1 Reynolds number fixed          Mach number fixed         

 xtrf =   0.250 (top)        0.250 (bottom)
 Mach =   0.000     Re =     0.007 e 6     Ncrit =   5.000

  alpha     CL        CD       CDp       Cm    Top Xtr Bot Xtr   Cpmin    Chinge    XCp    
 ------- -------- --------- --------- -------- ------- ------- -------- --------- ---------
 -10.000  -0.3741   0.14135   0.12100  -0.0294  0.2500  0.2500  -1.5690   0.0000   0.1595
  -9.500  -0.3680   0.13475   0.11450  -0.0313  0.2500  0.2500  -1.5761   0.0000   0.1537
  -9.000  -0.3633   0.12819   0.10807  -0.0330  0.2500  0.2500  -1.5841   0.0000   0.1485
  -8.500  -0.3610   0.12180   0.10183  -0.0345  0.2500  0.2500  -1.5950   0.0000   0.1444
  -8.000  -0.3581   0.11519   0.09536  -0.0364  0.2500  0.2500  -1.6200   0.0000   0.1388
  -7.500  -0.3547   0.10845   0.08874  -0.0385  0.2500  0.2500  -1.6459   0.0000   0.1327
  -7.000  -0.3508   0.10164   0.08200  -0.0405  0.2500  0.2500  -1.6706   0.0000   0.1262
  -6.500  -0.3450   0.09475   0.07502  -0.0426  0.2500  0.2500  -1.6913   0.0000   0.1186
  -6.000  -0.3354   0.08778   0.06789  -0.0449  0.2500  0.2500  -1.7044   0.0000   0.1088
  -5.500  -0.3190   0.08076   0.06052  -0.0473  0.2500  0.2500  -1.7172   0.0000   0.0944
  -5.000  -0.2934   0.07384   0.05299  -0.0501  0.2500  0.2500  -1.7202   0.0000   0.0718
  -4.500  -0.2580   0.06733   0.04561  -0.0528  0.2500  0.2500  -1.6996   0.0000   0.0377
  -4.000  -0.2129   0.06146   0.03872  -0.0551  0.2500  0.2500  -1.6737   0.0000  -0.0175
  -3.500  -0.1630   0.05661   0.03278  -0.0565  0.2500  0.2500  -1.6256   0.0000  -0.1067
  -3.000  -0.1149   0.05318   0.02852  -0.0563  0.2500  0.2500  -1.5385   0.0000  -0.2528
  -2.500  -0.0702   0.05118   0.02566  -0.0552  0.2500  0.2500  -1.4165   0.0000  -0.5544
  -2.000  -0.0273   0.05012   0.02363  -0.0537  0.2500  0.2500  -1.2767   0.0000  -1.7552
  -1.500   0.0142   0.04958   0.02229  -0.0521  0.2500  0.2500  -1.1491   0.0000   3.9656
  -1.000   0.0548   0.04938   0.02138  -0.0505  0.2500  0.2500  -1.0180   0.0000   1.1806
  -0.500   0.0949   0.04945   0.02077  -0.0490  0.2500  0.2500  -0.8863   0.0000   0.7682
   0.000   0.1345   0.04976   0.02056  -0.0475  0.2500  0.2500  -0.7558   0.0000   0.6025
   0.500   0.1734   0.05029   0.02062  -0.0460  0.2500  0.2500  -0.6279   0.0000   0.5133
   1.000   0.2119   0.05105   0.02101  -0.0446  0.2500  0.2500  -0.6208   0.0000   0.4577
   1.500   0.2496   0.05203   0.02171  -0.0434  0.2500  0.2500  -0.6530   0.0000   0.4200
   2.000   0.2868   0.05323   0.02270  -0.0423  0.2500  0.2500  -0.6867   0.0000   0.3929
   2.500   0.3231   0.05467   0.02400  -0.0413  0.2500  0.2500  -0.7190   0.0000   0.3727
   3.000   0.3582   0.05635   0.02561  -0.0403  0.2500  0.2500  -0.7499   0.0000   0.3571
   3.500   0.3919   0.05828   0.02758  -0.0395  0.2500  0.2500  -0.7828   0.0000   0.3449
   4.000   0.4243   0.06049   0.02983  -0.0389  0.2500  0.2500  -0.8159   0.0000   0.3351
   4.500   0.4553   0.06298   0.03242  -0.0383  0.2500  0.2500  -0.8513   0.0000   0.3272
   5.000   0.4847   0.06576   0.03542  -0.0379  0.2500  0.2500  -0.8884   0.0000   0.3208
   5.500   0.5127   0.06883   0.03867  -0.0376  0.2500  0.2500  -0.9420   0.0000   0.3155
   6.000   0.5393   0.07219   0.04222  -0.0375  0.2500  0.2500  -0.9966   0.0000   0.3111
   6.500   0.5648   0.07582   0.04607  -0.0374  0.2500  0.2500  -1.0513   0.0000   0.3073
   7.000   0.5896   0.07968   0.05026  -0.0375  0.2500  0.2500  -1.1106   0.0000   0.3042
   7.500   0.6141   0.08371   0.05457  -0.0377  0.2500  0.2500  -1.1688   0.0000   0.3014
   8.000   0.6385   0.08792   0.05910  -0.0379  0.2500  0.2500  -1.2256   0.0000   0.2988
   8.500   0.6628   0.09230   0.06384  -0.0382  0.2500  0.2500  -1.2807   0.0000   0.2966
   9.000   0.6868   0.09682   0.06887  -0.0386  0.2500  0.2500  -1.3340   0.0000   0.2945
   9.500   0.7100   0.10152   0.07401  -0.0390  0.2500  0.2500  -1.3946   0.0000   0.2927
  10.000   0.7324   0.10653   0.07951  -0.0395  0.2500  0.2500  -1.4517   0.0000   0.2912
  10.500   0.7540   0.11194   0.08543  -0.0404  0.2500  0.2500  -1.5033   0.0000   0.2902
  11.000   0.7746   0.11784   0.09199  -0.0415  0.2500  0.2500  -1.5474   0.0000   0.2896
  11.500   0.7937   0.12433   0.09903  -0.0429  0.2500  0.2500  -1.6566   0.0000   0.2896
  12.000   0.8113   0.13150   0.10673  -0.0448  0.2500  0.2500  -1.7663   0.0000   0.2902
  12.500   0.8271   0.13932   0.11506  -0.0471  0.2500  0.2500  -1.8710   0.0000   0.2913
  13.000   0.8414   0.14773   0.12394  -0.0497  0.2500  0.2500  -1.9676   0.0000   0.2929
  13.500   0.8543   0.15663   0.13341  -0.0526  0.2500  0.2500  -2.0500   0.0000   0.2949
  14.000   0.8658   0.16587   0.14306  -0.0559  0.2500  0.2500  -2.1180   0.0000   0.2972
  14.500   0.8761   0.17530   0.15287  -0.0593  0.2500  0.2500  -2.1730   0.0000   0.2998
  15.000   0.8855   0.18477   0.16269  -0.0629  0.2500  0.2500  -2.2169   0.0000   0.3026
  15.500   0.8943   0.19416   0.17241  -0.0667  0.2500  0.2500  -2.2506   0.0000   0.3054
  16.000   0.9025   0.20333   0.18189  -0.0704  0.2500  0.2500  -2.2742   0.0000   0.3082
  16.500   0.9110   0.21241   0.19128  -0.0743  0.2500  0.2500  -2.2896   0.0000   0.3111
  17.000   0.9198   0.22145   0.20059  -0.0783  0.2500  0.2500  -2.2959   0.0000   0.3139
  17.500   0.9290   0.23043   0.20997  -0.0823  0.2500  0.2500  -2.3041   0.0000   0.3167
  18.000   0.9386   0.23939   0.21917  -0.0865  0.2500  0.2500  -2.3073   0.0000   0.3194
  18.500   0.9487   0.24833   0.22831  -0.0907  0.2500  0.2500  -2.3007   0.0000   0.3221
  19.000   0.9594   0.25724   0.23741  -0.0950  0.2500  0.2500  -2.2849   0.0000   0.3247
  19.500   0.9705   0.26608   0.24640  -0.0993  0.2500  0.2500  -2.2624   0.0000   0.3272
  20.000   0.9822   0.27482   0.25528  -0.1037  0.2500  0.2500  -2.2355   0.0000   0.3295


