xflr5 v6.42

 Calculated polar for: CLARK_Y

 1 1 Reynolds number fixed          Mach number fixed         

 xtrf =   0.250 (top)        0.250 (bottom)
 Mach =   0.000     Re =     0.550 e 6     Ncrit =   5.000

  alpha     CL        CD       CDp       Cm    Top Xtr Bot Xtr   Cpmin    Chinge    XCp    
 ------- -------- --------- --------- -------- ------- ------- -------- --------- ---------
 -10.000  -0.6849   0.02691   0.02032  -0.0839  0.2500  0.0220  -6.5956   0.0000   0.1159
  -9.500  -0.6397   0.02540   0.01851  -0.0833  0.2500  0.0228  -6.0798   0.0000   0.1085
  -9.000  -0.5933   0.02387   0.01668  -0.0827  0.2500  0.0233  -5.5798   0.0000   0.0996
  -8.500  -0.5502   0.02126   0.01366  -0.0819  0.2500  0.0241  -5.1645   0.0000   0.0904
  -8.000  -0.5023   0.01960   0.01178  -0.0813  0.2500  0.0252  -4.7352   0.0000   0.0775
  -7.500  -0.4518   0.01841   0.01039  -0.0808  0.2500  0.0260  -4.3036   0.0000   0.0606
  -7.000  -0.4001   0.01740   0.00920  -0.0804  0.2500  0.0269  -3.9038   0.0000   0.0384
  -6.500  -0.3478   0.01647   0.00808  -0.0800  0.2500  0.0280  -3.5379   0.0000   0.0090
  -6.000  -0.2950   0.01554   0.00698  -0.0796  0.2500  0.0290  -3.2133   0.0000  -0.0312
  -5.500  -0.2416   0.01479   0.00607  -0.0793  0.2500  0.0300  -2.9231   0.0000  -0.0902
  -5.000  -0.1876   0.01416   0.00529  -0.0790  0.2500  0.0308  -2.6694   0.0000  -0.1845
  -4.500  -0.1332   0.01364   0.00465  -0.0787  0.2500  0.0315  -2.4156   0.0000  -0.3574
  -4.000  -0.0785   0.01320   0.00410  -0.0785  0.2500  0.0319  -2.1649   0.0000  -0.7742
  -3.500  -0.0239   0.01265   0.00344  -0.0782  0.2500  0.0334  -1.9373   0.0000  -3.0851
  -3.000   0.0312   0.01226   0.00298  -0.0781  0.2500  0.0363  -1.7078   0.0000   2.7911
  -2.500   0.0867   0.01199   0.00267  -0.0780  0.2500  0.0402  -1.4755   0.0000   1.1605
  -2.000   0.1424   0.01179   0.00245  -0.0779  0.2500  0.0466  -1.2528   0.0000   0.8016
  -1.500   0.1977   0.01154   0.00229  -0.0778  0.2500  0.0764  -1.0469   0.0000   0.6453
  -1.000   0.2532   0.01133   0.00219  -0.0777  0.2500  0.1127  -0.8676   0.0000   0.5574
  -0.500   0.3081   0.01103   0.00215  -0.0777  0.2500  0.1963  -0.6931   0.0000   0.5015
   0.000   0.3635   0.01090   0.00215  -0.0777  0.2500  0.2500  -0.7298   0.0000   0.4622
   0.500   0.4196   0.01097   0.00217  -0.0777  0.2500  0.2500  -0.7812   0.0000   0.4329
   1.000   0.4755   0.01106   0.00222  -0.0776  0.2500  0.2500  -0.8360   0.0000   0.4104
   1.500   0.5312   0.01116   0.00231  -0.0775  0.2500  0.2500  -0.8923   0.0000   0.3927
   2.000   0.5868   0.01127   0.00243  -0.0775  0.2500  0.2500  -0.9490   0.0000   0.3782
   2.500   0.6421   0.01140   0.00257  -0.0774  0.2500  0.2500  -1.0061   0.0000   0.3662
   3.000   0.6972   0.01154   0.00275  -0.0772  0.2500  0.2500  -1.0636   0.0000   0.3561
   3.500   0.7520   0.01169   0.00294  -0.0770  0.2500  0.2500  -1.1370   0.0000   0.3473
   4.000   0.8065   0.01186   0.00318  -0.0768  0.2500  0.2500  -1.2588   0.0000   0.3396
   4.500   0.8607   0.01204   0.00344  -0.0766  0.2500  0.2500  -1.3832   0.0000   0.3328
   5.000   0.9145   0.01225   0.00373  -0.0763  0.2500  0.2500  -1.5139   0.0000   0.3267
   5.500   0.9679   0.01246   0.00407  -0.0759  0.2500  0.2500  -1.6606   0.0000   0.3212
   6.000   1.0208   0.01270   0.00443  -0.0755  0.2500  0.2500  -1.8100   0.0000   0.3162
   6.500   1.0731   0.01296   0.00485  -0.0750  0.2500  0.2500  -1.9619   0.0000   0.3115
   7.000   1.1211   0.01353   0.00535  -0.0739  0.2207  0.2500  -2.1112   0.0000   0.3069
   7.500   1.1615   0.01464   0.00615  -0.0717  0.1625  0.2500  -2.4241   0.0000   0.3021
   8.000   1.1996   0.01585   0.00716  -0.0691  0.1150  0.2500  -2.7422   0.0000   0.2974
   8.500   1.2391   0.01686   0.00808  -0.0668  0.0906  0.2500  -3.0777   0.0000   0.2930
   9.000   1.2777   0.01782   0.00903  -0.0643  0.0739  0.2500  -3.4653   0.0000   0.2887
   9.500   1.3099   0.01883   0.01004  -0.0607  0.0597  0.2500  -3.8435   0.0000   0.2840
  10.000   1.3280   0.02092   0.01187  -0.0556  0.0214  0.2500  -4.1649   0.0000   0.2788
  10.500   1.3529   0.02264   0.01364  -0.0516  0.0142  0.2500  -4.5203   0.0000   0.2743
  11.000   1.3812   0.02414   0.01531  -0.0485  0.0125  0.2500  -4.9040   0.0000   0.2704
  11.500   1.4059   0.02597   0.01731  -0.0452  0.0112  0.2500  -5.2828   0.0000   0.2667
  12.000   1.4244   0.02833   0.01984  -0.0418  0.0098  0.2500  -5.6370   0.0000   0.2630
  12.500   1.4406   0.03106   0.02276  -0.0386  0.0090  0.2500  -5.9779   0.0000   0.2596
  13.000   1.4568   0.03393   0.02582  -0.0361  0.0085  0.2500  -6.3317   0.0000   0.2566
  13.500   1.4684   0.03742   0.02951  -0.0338  0.0081  0.2500  -6.6615   0.0000   0.2538
  14.000   1.4755   0.04157   0.03388  -0.0319  0.0077  0.2500  -6.9664   0.0000   0.2515
  14.500   1.4775   0.04651   0.03904  -0.0306  0.0073  0.2500  -7.2411   0.0000   0.2495
  15.000   1.4758   0.05227   0.04502  -0.0299  0.0070  0.2500  -7.4917   0.0000   0.2480
  15.500   1.4691   0.05902   0.05199  -0.0301  0.0068  0.2500  -7.7290   0.0000   0.2471
  16.000   1.4566   0.06705   0.06027  -0.0311  0.0066  0.2500  -7.9203   0.0000   0.2468
  16.500   1.4381   0.07645   0.06991  -0.0332  0.0064  0.2500  -8.0513   0.0000   0.2474
  17.000   1.4138   0.08711   0.08082  -0.0362  0.0063  0.2500  -8.1162   0.0000   0.2488
  17.500   1.3862   0.09883   0.09278  -0.0401  0.0062  0.2500  -8.1296   0.0000   0.2510
  18.000   1.3573   0.11113   0.10533  -0.0446  0.0061  0.2500  -8.1057   0.0000   0.2539
  18.500   1.3289   0.12340   0.11782  -0.0495  0.0059  0.2500  -8.0618   0.0000   0.2572
  19.000   1.3067   0.13496   0.12958  -0.0545  0.0058  0.2500  -8.0532   0.0000   0.2605
  19.500   1.2919   0.14550   0.14030  -0.0594  0.0058  0.2500  -8.1049   0.0000   0.2637
  20.000   1.2793   0.15586   0.15085  -0.0645  0.0057  0.2500  -8.1571   0.0000   0.2671


