xflr5 v6.42

 Calculated polar for: CLARK_Y

 1 1 Reynolds number fixed          Mach number fixed         

 xtrf =   0.250 (top)        0.250 (bottom)
 Mach =   0.000     Re =     0.010 e 6     Ncrit =   5.000

  alpha     CL        CD       CDp       Cm    Top Xtr Bot Xtr   Cpmin    Chinge    XCp    
 ------- -------- --------- --------- -------- ------- ------- -------- --------- ---------
 -10.000  -0.3689   0.13774   0.11961  -0.0292  0.2500  0.2500  -1.5292   0.0000   0.1590
  -9.500  -0.3625   0.13108   0.11302  -0.0312  0.2500  0.2500  -1.5373   0.0000   0.1527
  -9.000  -0.3573   0.12445   0.10649  -0.0331  0.2500  0.2500  -1.5458   0.0000   0.1467
  -8.500  -0.3541   0.11788   0.10004  -0.0350  0.2500  0.2500  -1.5565   0.0000   0.1412
  -8.000  -0.3502   0.11111   0.09338  -0.0373  0.2500  0.2500  -1.5725   0.0000   0.1339
  -7.500  -0.3459   0.10421   0.08657  -0.0399  0.2500  0.2500  -1.5996   0.0000   0.1259
  -7.000  -0.3411   0.09724   0.07958  -0.0424  0.2500  0.2500  -1.6260   0.0000   0.1173
  -6.500  -0.3343   0.09016   0.07247  -0.0451  0.2500  0.2500  -1.6484   0.0000   0.1073
  -6.000  -0.3239   0.08300   0.06516  -0.0478  0.2500  0.2500  -1.6638   0.0000   0.0949
  -5.500  -0.3066   0.07579   0.05760  -0.0508  0.2500  0.2500  -1.6728   0.0000   0.0772
  -5.000  -0.2797   0.06869   0.04989  -0.0539  0.2500  0.2500  -1.6792   0.0000   0.0502
  -4.500  -0.2411   0.06193   0.04222  -0.0570  0.2500  0.2500  -1.6623   0.0000   0.0058
  -4.000  -0.1914   0.05583   0.03492  -0.0597  0.2500  0.2500  -1.6395   0.0000  -0.0712
  -3.500  -0.1366   0.05076   0.02877  -0.0612  0.2500  0.2500  -1.6012   0.0000  -0.2099
  -3.000  -0.0846   0.04713   0.02434  -0.0610  0.2500  0.2500  -1.5215   0.0000  -0.4880
  -2.500  -0.0376   0.04517   0.02155  -0.0597  0.2500  0.2500  -1.3967   0.0000  -1.3706
  -2.000   0.0077   0.04423   0.01980  -0.0583  0.2500  0.2500  -1.2512   0.0000   7.9862
  -1.500   0.0522   0.04378   0.01861  -0.0568  0.2500  0.2500  -1.1151   0.0000   1.3507
  -1.000   0.0962   0.04361   0.01776  -0.0554  0.2500  0.2500  -0.9756   0.0000   0.8302
  -0.500   0.1397   0.04367   0.01729  -0.0540  0.2500  0.2500  -0.8361   0.0000   0.6377
   0.000   0.1823   0.04391   0.01710  -0.0526  0.2500  0.2500  -0.6990   0.0000   0.5376
   0.500   0.2239   0.04433   0.01713  -0.0511  0.2500  0.2500  -0.6294   0.0000   0.4761
   1.000   0.2642   0.04491   0.01746  -0.0495  0.2500  0.2500  -0.6648   0.0000   0.4344
   1.500   0.3036   0.04567   0.01803  -0.0479  0.2500  0.2500  -0.7011   0.0000   0.4042
   2.000   0.3421   0.04661   0.01885  -0.0464  0.2500  0.2500  -0.7383   0.0000   0.3814
   2.500   0.3796   0.04775   0.01995  -0.0450  0.2500  0.2500  -0.7743   0.0000   0.3637
   3.000   0.4163   0.04909   0.02135  -0.0437  0.2500  0.2500  -0.8097   0.0000   0.3495
   3.500   0.4519   0.05069   0.02302  -0.0425  0.2500  0.2500  -0.8473   0.0000   0.3382
   4.000   0.4863   0.05253   0.02501  -0.0414  0.2500  0.2500  -0.8863   0.0000   0.3289
   4.500   0.5190   0.05466   0.02740  -0.0405  0.2500  0.2500  -0.9283   0.0000   0.3212
   5.000   0.5500   0.05708   0.03008  -0.0397  0.2500  0.2500  -0.9814   0.0000   0.3149
   5.500   0.5788   0.05986   0.03315  -0.0391  0.2500  0.2500  -1.0440   0.0000   0.3097
   6.000   0.6058   0.06300   0.03660  -0.0387  0.2500  0.2500  -1.1069   0.0000   0.3054
   6.500   0.6305   0.06652   0.04055  -0.0384  0.2500  0.2500  -1.1714   0.0000   0.3020
   7.000   0.6538   0.07041   0.04479  -0.0383  0.2500  0.2500  -1.2322   0.0000   0.2991
   7.500   0.6760   0.07461   0.04934  -0.0383  0.2500  0.2500  -1.2898   0.0000   0.2967
   8.000   0.6981   0.07899   0.05411  -0.0384  0.2500  0.2500  -1.3458   0.0000   0.2945
   8.500   0.7204   0.08354   0.05915  -0.0386  0.2500  0.2500  -1.4005   0.0000   0.2924
   9.000   0.7426   0.08822   0.06426  -0.0388  0.2500  0.2500  -1.4628   0.0000   0.2905
   9.500   0.7641   0.09310   0.06959  -0.0390  0.2500  0.2500  -1.5237   0.0000   0.2888
  10.000   0.7847   0.09834   0.07530  -0.0395  0.2500  0.2500  -1.5796   0.0000   0.2875
  10.500   0.8041   0.10405   0.08162  -0.0402  0.2500  0.2500  -1.6281   0.0000   0.2866
  11.000   0.8219   0.11039   0.08847  -0.0413  0.2500  0.2500  -1.7318   0.0000   0.2862
  11.500   0.8376   0.11751   0.09610  -0.0428  0.2500  0.2500  -1.8477   0.0000   0.2865
  12.000   0.8509   0.12550   0.10457  -0.0448  0.2500  0.2500  -1.9570   0.0000   0.2875
  12.500   0.8619   0.13429   0.11380  -0.0473  0.2500  0.2500  -2.0460   0.0000   0.2892
  13.000   0.8710   0.14371   0.12373  -0.0502  0.2500  0.2500  -2.1162   0.0000   0.2915
  13.500   0.8785   0.15355   0.13393  -0.0535  0.2500  0.2500  -2.1698   0.0000   0.2942
  14.000   0.8848   0.16357   0.14427  -0.0570  0.2500  0.2500  -2.2102   0.0000   0.2972
  14.500   0.8906   0.17355   0.15454  -0.0607  0.2500  0.2500  -2.2412   0.0000   0.3004
  15.000   0.8964   0.18339   0.16466  -0.0645  0.2500  0.2500  -2.2650   0.0000   0.3036
  15.500   0.9020   0.19296   0.17449  -0.0684  0.2500  0.2500  -2.2816   0.0000   0.3068
  16.000   0.9078   0.20223   0.18402  -0.0723  0.2500  0.2500  -2.2908   0.0000   0.3099
  16.500   0.9145   0.21140   0.19343  -0.0762  0.2500  0.2500  -2.2930   0.0000   0.3129
  17.000   0.9219   0.22049   0.20276  -0.0803  0.2500  0.2500  -2.2985   0.0000   0.3159
  17.500   0.9300   0.22956   0.21215  -0.0844  0.2500  0.2500  -2.2973   0.0000   0.3189
  18.000   0.9388   0.23862   0.22140  -0.0886  0.2500  0.2500  -2.2848   0.0000   0.3217
  18.500   0.9482   0.24766   0.23060  -0.0929  0.2500  0.2500  -2.2614   0.0000   0.3245
  19.000   0.9585   0.25663   0.23971  -0.0972  0.2500  0.2500  -2.2304   0.0000   0.3272
  19.500   0.9695   0.26550   0.24868  -0.1016  0.2500  0.2500  -2.1953   0.0000   0.3297
  20.000   0.9813   0.27422   0.25750  -0.1059  0.2500  0.2500  -2.1596   0.0000   0.3320


