xflr5 v6.42

 Calculated polar for: CLARK_Y

 1 1 Reynolds number fixed          Mach number fixed         

 xtrf =   0.250 (top)        0.250 (bottom)
 Mach =   0.000     Re =     3.000 e 6     Ncrit =   5.000

  alpha     CL        CD       CDp       Cm    Top Xtr Bot Xtr   Cpmin    Chinge    XCp    
 ------- -------- --------- --------- -------- ------- ------- -------- --------- ---------
 -10.000  -0.7469   0.01224   0.00602  -0.0793  0.2500  0.0168  -7.4456   0.0000   0.1321
  -9.500  -0.6921   0.01184   0.00554  -0.0792  0.2500  0.0169  -6.8102   0.0000   0.1242
  -9.000  -0.6368   0.01154   0.00519  -0.0791  0.2500  0.0170  -6.1917   0.0000   0.1147
  -8.500  -0.5823   0.01100   0.00455  -0.0790  0.2500  0.0179  -5.6202   0.0000   0.1036
  -8.000  -0.5269   0.01061   0.00412  -0.0789  0.2500  0.0192  -5.1089   0.0000   0.0896
  -7.500  -0.4710   0.01031   0.00379  -0.0789  0.2500  0.0203  -4.6148   0.0000   0.0719
  -7.000  -0.4147   0.01008   0.00355  -0.0790  0.2500  0.0214  -4.1782   0.0000   0.0490
  -6.500  -0.3583   0.00984   0.00326  -0.0790  0.2500  0.0221  -3.8368   0.0000   0.0186
  -6.000  -0.3017   0.00963   0.00301  -0.0791  0.2500  0.0226  -3.5042   0.0000  -0.0235
  -5.500  -0.2450   0.00943   0.00278  -0.0792  0.2500  0.0230  -3.1819   0.0000  -0.0855
  -5.000  -0.1882   0.00924   0.00255  -0.0793  0.2500  0.0232  -2.8710   0.0000  -0.1854
  -4.500  -0.1312   0.00906   0.00234  -0.0795  0.2500  0.0233  -2.5723   0.0000  -0.3724
  -4.000  -0.0742   0.00890   0.00214  -0.0796  0.2500  0.0234  -2.2857   0.0000  -0.8477
  -3.500  -0.0171   0.00874   0.00196  -0.0798  0.2500  0.0234  -2.0111   0.0000  -4.4924
  -3.000   0.0399   0.00858   0.00176  -0.0799  0.2500  0.0240  -1.7547   0.0000   2.2822
  -2.500   0.0971   0.00843   0.00159  -0.0801  0.2500  0.0262  -1.5107   0.0000   1.0842
  -2.000   0.1543   0.00832   0.00149  -0.0802  0.2500  0.0293  -1.2693   0.0000   0.7742
  -1.500   0.2117   0.00825   0.00142  -0.0805  0.2500  0.0313  -1.0463   0.0000   0.6318
  -1.000   0.2690   0.00820   0.00137  -0.0807  0.2500  0.0320  -0.8523   0.0000   0.5501
  -0.500   0.3263   0.00815   0.00134  -0.0809  0.2500  0.0394  -0.6885   0.0000   0.4971
   0.000   0.3832   0.00799   0.00132  -0.0811  0.2500  0.0732  -0.7399   0.0000   0.4601
   0.500   0.4404   0.00796   0.00133  -0.0813  0.2500  0.0897  -0.7935   0.0000   0.4325
   1.000   0.4972   0.00781   0.00135  -0.0816  0.2500  0.1525  -0.8501   0.0000   0.4113
   1.500   0.5538   0.00763   0.00141  -0.0818  0.2500  0.2421  -0.9071   0.0000   0.3945
   2.000   0.6110   0.00767   0.00148  -0.0820  0.2500  0.2500  -0.9652   0.0000   0.3806
   2.500   0.6681   0.00774   0.00155  -0.0823  0.2500  0.2500  -1.0239   0.0000   0.3690
   3.000   0.7251   0.00782   0.00165  -0.0825  0.2500  0.2500  -1.0831   0.0000   0.3591
   3.500   0.7820   0.00790   0.00175  -0.0827  0.2500  0.2500  -1.1732   0.0000   0.3506
   4.000   0.8380   0.00805   0.00190  -0.0828  0.2439  0.2500  -1.2979   0.0000   0.3432
   4.500   0.8930   0.00827   0.00208  -0.0827  0.2283  0.2500  -1.4243   0.0000   0.3365
   5.000   0.9437   0.00886   0.00244  -0.0820  0.1800  0.2500  -1.5590   0.0000   0.3303
   5.500   0.9943   0.00943   0.00283  -0.0813  0.1414  0.2500  -1.7029   0.0000   0.3245
   6.000   1.0434   0.01010   0.00331  -0.0803  0.1024  0.2500  -1.8479   0.0000   0.3192
   6.500   1.0935   0.01065   0.00375  -0.0795  0.0774  0.2500  -1.9985   0.0000   0.3143
   7.000   1.1437   0.01116   0.00418  -0.0787  0.0615  0.2500  -2.2020   0.0000   0.3099
   7.500   1.1924   0.01175   0.00468  -0.0777  0.0457  0.2500  -2.5494   0.0000   0.3056
   8.000   1.2342   0.01287   0.00562  -0.0756  0.0141  0.2500  -2.8854   0.0000   0.3010
   8.500   1.2820   0.01341   0.00618  -0.0744  0.0110  0.2500  -3.2860   0.0000   0.2971
   9.000   1.3291   0.01396   0.00674  -0.0732  0.0090  0.2500  -3.7310   0.0000   0.2935
   9.500   1.3749   0.01453   0.00734  -0.0718  0.0080  0.2500  -4.1941   0.0000   0.2899
  10.000   1.4182   0.01519   0.00802  -0.0701  0.0066  0.2500  -4.6640   0.0000   0.2863
  10.500   1.4600   0.01586   0.00873  -0.0680  0.0058  0.2500  -5.1435   0.0000   0.2827
  11.000   1.4941   0.01653   0.00945  -0.0646  0.0055  0.2500  -5.6059   0.0000   0.2785
  11.500   1.5293   0.01736   0.01033  -0.0616  0.0051  0.2500  -6.0894   0.0000   0.2747
  12.000   1.5623   0.01834   0.01135  -0.0585  0.0046  0.2500  -6.5755   0.0000   0.2710
  12.500   1.5926   0.01948   0.01254  -0.0552  0.0041  0.2500  -7.0593   0.0000   0.2674
  13.000   1.6200   0.02083   0.01397  -0.0518  0.0035  0.2500  -7.5321   0.0000   0.2638
  13.500   1.6463   0.02234   0.01557  -0.0486  0.0034  0.2500  -8.0141   0.0000   0.2605
  14.000   1.6710   0.02401   0.01732  -0.0456  0.0033  0.2500  -8.5086   0.0000   0.2572
  14.500   1.6936   0.02595   0.01935  -0.0428  0.0033  0.2500  -9.0444   0.0000   0.2542
  15.000   1.7140   0.02819   0.02168  -0.0401  0.0032  0.2500  -9.5753   0.0000   0.2513
  15.500   1.7311   0.03078   0.02439  -0.0376  0.0032  0.2500  -10.0929   0.0000   0.2486
  16.000   1.7450   0.03386   0.02757  -0.0353  0.0031  0.2500  -10.5942   0.0000   0.2460
  16.500   1.7551   0.03744   0.03126  -0.0334  0.0030  0.2500  -11.0725   0.0000   0.2437
  17.000   1.7622   0.04149   0.03544  -0.0318  0.0029  0.2500  -11.5303   0.0000   0.2415
  17.500   1.7649   0.04636   0.04043  -0.0307  0.0028  0.2500  -11.9537   0.0000   0.2397
  18.000   1.7645   0.05186   0.04606  -0.0302  0.0027  0.2500  -12.3500   0.0000   0.2381
  18.500   1.7577   0.05833   0.05268  -0.0302  0.0025  0.2500  -12.6858   0.0000   0.2369
  19.000   1.7478   0.06555   0.06006  -0.0309  0.0024  0.2500  -12.9885   0.0000   0.2361
  19.500   1.7304   0.07416   0.06884  -0.0324  0.0023  0.2500  -13.2081   0.0000   0.2358
  20.000   1.7070   0.08376   0.07861  -0.0346  0.0023  0.2500  -13.3561   0.0000   0.2360


