xflr5 v6.42

 Calculated polar for: CLARK_Y

 1 1 Reynolds number fixed          Mach number fixed         

 xtrf =   0.250 (top)        0.250 (bottom)
 Mach =   0.000     Re =     0.015 e 6     Ncrit =   5.000

  alpha     CL        CD       CDp       Cm    Top Xtr Bot Xtr   Cpmin    Chinge    XCp    
 ------- -------- --------- --------- -------- ------- ------- -------- --------- ---------
 -10.000  -0.3713   0.13345   0.11783  -0.0317  0.2500  0.2202  -1.5505   0.0000   0.1530
  -9.500  -0.3512   0.12437   0.10871  -0.0340  0.2500  0.2050  -1.5392   0.0000   0.1416
  -9.000  -0.3556   0.11753   0.10197  -0.0385  0.2500  0.1931  -1.6178   0.0000   0.1311
  -8.500  -0.3450   0.10997   0.09446  -0.0406  0.2500  0.1880  -1.6164   0.0000   0.1222
  -8.000  -0.3424   0.10288   0.08746  -0.0435  0.2500  0.1855  -1.6409   0.0000   0.1135
  -7.500  -0.3395   0.09576   0.08040  -0.0467  0.2500  0.1867  -1.6706   0.0000   0.1035
  -7.000  -0.3357   0.08853   0.07317  -0.0501  0.2500  0.1889  -1.7098   0.0000   0.0925
  -6.500  -0.3285   0.08105   0.06553  -0.0536  0.2500  0.1907  -1.7447   0.0000   0.0791
  -6.000  -0.3139   0.07341   0.05760  -0.0571  0.2500  0.1916  -1.7635   0.0000   0.0607
  -5.500  -0.2908   0.06585   0.04946  -0.0608  0.2500  0.1937  -1.7645   0.0000   0.0335
  -5.000  -0.2592   0.05958   0.04265  -0.0621  0.2500  0.2005  -1.7292   0.0000   0.0026
  -4.500  -0.2214   0.05439   0.03664  -0.0633  0.2500  0.2201  -1.6692   0.0000  -0.0439
  -4.000  -0.1771   0.04980   0.03141  -0.0634  0.2500  0.2424  -1.5928   0.0000  -0.1168
  -3.500  -0.1196   0.04470   0.02524  -0.0648  0.2500  0.2500  -1.5616   0.0000  -0.3039
  -3.000  -0.0602   0.04045   0.02010  -0.0649  0.2500  0.2500  -1.5079   0.0000  -0.8502
  -2.500  -0.0103   0.03824   0.01718  -0.0635  0.2500  0.2500  -1.3924   0.0000  -5.9928
  -2.000   0.0371   0.03740   0.01560  -0.0620  0.2500  0.2500  -1.2398   0.0000   1.9458
  -1.500   0.0841   0.03704   0.01458  -0.0607  0.2500  0.2500  -1.0960   0.0000   0.9784
  -1.000   0.1308   0.03692   0.01386  -0.0594  0.2500  0.2500  -0.9483   0.0000   0.7063
  -0.500   0.1770   0.03697   0.01346  -0.0581  0.2500  0.2500  -0.8013   0.0000   0.5783
   0.000   0.2228   0.03716   0.01325  -0.0568  0.2500  0.2500  -0.6569   0.0000   0.5037
   0.500   0.2679   0.03749   0.01330  -0.0555  0.2500  0.2500  -0.6659   0.0000   0.4549
   1.000   0.3124   0.03793   0.01354  -0.0542  0.2500  0.2500  -0.7059   0.0000   0.4204
   1.500   0.3561   0.03850   0.01397  -0.0528  0.2500  0.2500  -0.7481   0.0000   0.3947
   2.000   0.3989   0.03919   0.01459  -0.0514  0.2500  0.2500  -0.7907   0.0000   0.3747
   2.500   0.4407   0.04001   0.01541  -0.0500  0.2500  0.2500  -0.8326   0.0000   0.3587
   3.000   0.4808   0.04096   0.01645  -0.0484  0.2500  0.2500  -0.8739   0.0000   0.3455
   3.500   0.5197   0.04206   0.01768  -0.0468  0.2500  0.2500  -0.9178   0.0000   0.3344
   4.000   0.5576   0.04333   0.01919  -0.0453  0.2500  0.2500  -0.9644   0.0000   0.3251
   4.500   0.5940   0.04480   0.02091  -0.0438  0.2500  0.2500  -1.0202   0.0000   0.3171
   5.000   0.6295   0.04651   0.02291  -0.0425  0.2500  0.2500  -1.0973   0.0000   0.3103
   5.500   0.6637   0.04847   0.02530  -0.0413  0.2500  0.2500  -1.1808   0.0000   0.3045
   6.000   0.6957   0.05074   0.02798  -0.0402  0.2500  0.2500  -1.2645   0.0000   0.2996
   6.500   0.7257   0.05336   0.03105  -0.0393  0.2500  0.2500  -1.3450   0.0000   0.2953
   7.000   0.7533   0.05636   0.03454  -0.0385  0.2500  0.2500  -1.4214   0.0000   0.2918
   7.500   0.7786   0.05979   0.03856  -0.0380  0.2500  0.2500  -1.4929   0.0000   0.2888
   8.000   0.8016   0.06366   0.04297  -0.0376  0.2500  0.2500  -1.5642   0.0000   0.2863
   8.500   0.8222   0.06802   0.04786  -0.0374  0.2500  0.2500  -1.6343   0.0000   0.2843
   9.000   0.8397   0.07310   0.05343  -0.0376  0.2500  0.2500  -1.6947   0.0000   0.2830
   9.500   0.8570   0.07837   0.05929  -0.0378  0.2500  0.2500  -1.7522   0.0000   0.2817
  10.000   0.8738   0.08394   0.06536  -0.0380  0.2500  0.2500  -1.8281   0.0000   0.2805
  10.500   0.8890   0.09009   0.07204  -0.0386  0.2500  0.2500  -1.9768   0.0000   0.2798
  11.000   0.9014   0.09725   0.07971  -0.0396  0.2500  0.2500  -2.1091   0.0000   0.2798
  11.500   0.9092   0.10582   0.08877  -0.0414  0.2500  0.2500  -2.2077   0.0000   0.2808
  12.000   0.9118   0.11589   0.09935  -0.0440  0.2500  0.2500  -2.2660   0.0000   0.2830
  12.500   0.9107   0.12703   0.11082  -0.0473  0.2500  0.2500  -2.2909   0.0000   0.2862
  13.000   0.9078   0.13860   0.12266  -0.0510  0.2500  0.2500  -2.2960   0.0000   0.2901
  13.500   0.9049   0.15008   0.13439  -0.0550  0.2500  0.2500  -2.2925   0.0000   0.2942
  14.000   0.9032   0.16115   0.14569  -0.0591  0.2500  0.2500  -2.2898   0.0000   0.2983
  14.500   0.9030   0.17172   0.15648  -0.0631  0.2500  0.2500  -2.2895   0.0000   0.3021
  15.000   0.9042   0.18182   0.16679  -0.0670  0.2500  0.2500  -2.2901   0.0000   0.3058
  15.500   0.9062   0.19138   0.17657  -0.0709  0.2500  0.2500  -2.2879   0.0000   0.3093
  16.000   0.9097   0.20068   0.18607  -0.0748  0.2500  0.2500  -2.2830   0.0000   0.3126
  16.500   0.9146   0.20986   0.19546  -0.0788  0.2500  0.2500  -2.2858   0.0000   0.3159
  17.000   0.9206   0.21901   0.20480  -0.0829  0.2500  0.2500  -2.2772   0.0000   0.3190
  17.500   0.9263   0.22753   0.21358  -0.0870  0.2469  0.2500  -2.2527   0.0000   0.3222
  18.000   0.9345   0.23625   0.22244  -0.0911  0.2435  0.2500  -2.2211   0.0000   0.3250
  18.500   0.9467   0.24344   0.22973  -0.0937  0.2218  0.2500  -2.2258   0.0000   0.3255
  19.000   0.9616   0.25168   0.23805  -0.0962  0.2049  0.2500  -2.2296   0.0000   0.3258
  19.500   0.9704   0.25905   0.24546  -0.1006  0.1972  0.2500  -2.1807   0.0000   0.3285
  20.000   0.9876   0.26801   0.25448  -0.1032  0.1841  0.2500  -2.1901   0.0000   0.3284


