xflr5 v6.42

 Calculated polar for: CLARK_Y

 1 1 Reynolds number fixed          Mach number fixed         

 xtrf =   0.250 (top)        0.250 (bottom)
 Mach =   0.000     Re =     0.800 e 6     Ncrit =   5.000

  alpha     CL        CD       CDp       Cm    Top Xtr Bot Xtr   Cpmin    Chinge    XCp    
 ------- -------- --------- --------- -------- ------- ------- -------- --------- ---------
 -10.000  -0.7093   0.02118   0.01452  -0.0826  0.2500  0.0205  -6.9388   0.0000   0.1219
  -9.500  -0.6592   0.02033   0.01348  -0.0822  0.2500  0.0214  -6.3587   0.0000   0.1140
  -9.000  -0.6090   0.01935   0.01230  -0.0817  0.2500  0.0222  -5.8072   0.0000   0.1048
  -8.500  -0.5585   0.01827   0.01101  -0.0813  0.2500  0.0227  -5.2960   0.0000   0.0937
  -8.000  -0.5061   0.01756   0.01013  -0.0810  0.2500  0.0231  -4.8181   0.0000   0.0794
  -7.500  -0.4535   0.01684   0.00924  -0.0807  0.2500  0.0234  -4.3599   0.0000   0.0616
  -7.000  -0.4044   0.01508   0.00723  -0.0799  0.2500  0.0246  -4.0047   0.0000   0.0417
  -6.500  -0.3517   0.01422   0.00623  -0.0796  0.2500  0.0257  -3.6291   0.0000   0.0128
  -6.000  -0.2977   0.01360   0.00551  -0.0793  0.2500  0.0266  -3.2937   0.0000  -0.0278
  -5.500  -0.2432   0.01308   0.00489  -0.0791  0.2500  0.0275  -3.0108   0.0000  -0.0875
  -5.000  -0.1884   0.01261   0.00430  -0.0790  0.2500  0.0285  -2.7389   0.0000  -0.1827
  -4.500  -0.1333   0.01220   0.00380  -0.0788  0.2500  0.0293  -2.4733   0.0000  -0.3579
  -4.000  -0.0779   0.01184   0.00335  -0.0787  0.2500  0.0302  -2.2139   0.0000  -0.7850
  -3.500  -0.0222   0.01155   0.00298  -0.0786  0.2500  0.0310  -1.9607   0.0000  -3.3669
  -3.000   0.0337   0.01132   0.00269  -0.0786  0.2500  0.0317  -1.7135   0.0000   2.6162
  -2.500   0.0897   0.01108   0.00239  -0.0785  0.2500  0.0340  -1.4818   0.0000   1.1362
  -2.000   0.1457   0.01088   0.00217  -0.0785  0.2500  0.0390  -1.2563   0.0000   0.7932
  -1.500   0.2018   0.01072   0.00203  -0.0785  0.2500  0.0493  -1.0449   0.0000   0.6409
  -1.000   0.2576   0.01052   0.00195  -0.0785  0.2500  0.0830  -0.8641   0.0000   0.5550
   0.000   0.3688   0.01007   0.00189  -0.0786  0.2500  0.2119  -0.7325   0.0000   0.4615
   0.500   0.4248   0.01002   0.00192  -0.0786  0.2500  0.2500  -0.7839   0.0000   0.4329
   1.000   0.4811   0.01009   0.00197  -0.0787  0.2500  0.2500  -0.8397   0.0000   0.4107
   1.500   0.5373   0.01018   0.00205  -0.0787  0.2500  0.2500  -0.8963   0.0000   0.3931
   2.000   0.5934   0.01028   0.00215  -0.0787  0.2500  0.2500  -0.9534   0.0000   0.3789
   2.500   0.6492   0.01039   0.00227  -0.0787  0.2500  0.2500  -1.0110   0.0000   0.3670
   3.000   0.7048   0.01051   0.00243  -0.0786  0.2500  0.2500  -1.0690   0.0000   0.3569
   3.500   0.7602   0.01064   0.00260  -0.0786  0.2500  0.2500  -1.1469   0.0000   0.3482
   4.000   0.8153   0.01079   0.00281  -0.0785  0.2500  0.2500  -1.2697   0.0000   0.3406
   4.500   0.8701   0.01094   0.00303  -0.0783  0.2500  0.2500  -1.3953   0.0000   0.3339
   5.000   0.9246   0.01112   0.00328  -0.0781  0.2500  0.2500  -1.5297   0.0000   0.3278
   5.500   0.9787   0.01130   0.00357  -0.0779  0.2500  0.2500  -1.6781   0.0000   0.3224
   6.000   1.0323   0.01151   0.00388  -0.0776  0.2488  0.2500  -1.8293   0.0000   0.3174
   6.500   1.0814   0.01206   0.00433  -0.0767  0.2160  0.2500  -1.9775   0.0000   0.3125
   7.000   1.1253   0.01300   0.00499  -0.0750  0.1639  0.2500  -2.1310   0.0000   0.3076
   7.500   1.1660   0.01413   0.00586  -0.0728  0.1123  0.2500  -2.4454   0.0000   0.3028
   8.000   1.2082   0.01506   0.00669  -0.0708  0.0859  0.2500  -2.7797   0.0000   0.2983
   8.500   1.2514   0.01584   0.00744  -0.0690  0.0703  0.2500  -3.1366   0.0000   0.2942
   9.000   1.2920   0.01671   0.00828  -0.0668  0.0549  0.2500  -3.5400   0.0000   0.2901
   9.500   1.3123   0.01850   0.00982  -0.0614  0.0176  0.2500  -3.8666   0.0000   0.2844
  10.000   1.3451   0.01961   0.01100  -0.0581  0.0130  0.2500  -4.2587   0.0000   0.2801
  10.500   1.3778   0.02076   0.01226  -0.0550  0.0114  0.2500  -4.6669   0.0000   0.2761
  11.000   1.4054   0.02225   0.01387  -0.0515  0.0095  0.2500  -5.0590   0.0000   0.2720
  11.500   1.4335   0.02373   0.01549  -0.0483  0.0088  0.2500  -5.4688   0.0000   0.2682
  12.000   1.4593   0.02545   0.01735  -0.0453  0.0081  0.2500  -5.8777   0.0000   0.2647
  12.500   1.4815   0.02750   0.01954  -0.0422  0.0075  0.2500  -6.2765   0.0000   0.2613
  13.000   1.5002   0.02997   0.02215  -0.0393  0.0070  0.2500  -6.6644   0.0000   0.2581
  13.500   1.5139   0.03299   0.02534  -0.0365  0.0065  0.2500  -7.0262   0.0000   0.2550
  14.000   1.5201   0.03695   0.02949  -0.0340  0.0061  0.2500  -7.3316   0.0000   0.2522
  14.500   1.5231   0.04149   0.03424  -0.0320  0.0058  0.2500  -7.6190   0.0000   0.2498
  15.000   1.5272   0.04620   0.03915  -0.0307  0.0057  0.2500  -7.9455   0.0000   0.2479
  15.500   1.5269   0.05181   0.04496  -0.0301  0.0056  0.2500  -8.2588   0.0000   0.2464
  16.000   1.5219   0.05832   0.05168  -0.0302  0.0055  0.2500  -8.5325   0.0000   0.2454
  16.500   1.5122   0.06587   0.05945  -0.0311  0.0053  0.2500  -8.7637   0.0000   0.2449
  17.000   1.4980   0.07451   0.06833  -0.0329  0.0052  0.2500  -8.9493   0.0000   0.2451
  17.500   1.4785   0.08424   0.07831  -0.0354  0.0051  0.2500  -9.0775   0.0000   0.2460
  18.000   1.4549   0.09501   0.08931  -0.0387  0.0050  0.2500  -9.1535   0.0000   0.2475
  18.500   1.4287   0.10662   0.10115  -0.0429  0.0049  0.2500  -9.1829   0.0000   0.2497
  19.000   1.4005   0.11868   0.11343  -0.0475  0.0048  0.2500  -9.1717   0.0000   0.2525
  19.500   1.3742   0.13070   0.12566  -0.0526  0.0047  0.2500  -9.1540   0.0000   0.2557
  20.000   1.3511   0.14253   0.13768  -0.0581  0.0046  0.2500  -9.1416   0.0000   0.2593


