xflr5 v6.42

 Calculated polar for: clarky

 1 1 Reynolds number fixed          Mach number fixed         

 xtrf =   0.250 (top)        0.250 (bottom)
 Mach =   0.000     Re =     0.150 e 6     Ncrit =   5.000

  alpha     CL        CD       CDp       Cm    Top Xtr Bot Xtr   Cpmin    Chinge    XCp    
 ------- -------- --------- --------- -------- ------- ------- -------- --------- ---------
 -10.000  -0.3722   0.09877   0.09169  -0.0441  0.2500  0.0352  -2.2827   0.0000   0.1183
  -9.500  -0.3770   0.08894   0.08191  -0.0502  0.2500  0.0379  -2.4465   0.0000   0.1044
  -9.000  -0.3913   0.07638   0.06943  -0.0591  0.2500  0.0385  -2.7293   0.0000   0.0872
  -8.500  -0.4285   0.05540   0.04829  -0.0783  0.2500  0.0380  -3.3506   0.0000   0.0566
  -8.000  -0.4401   0.04164   0.03356  -0.0834  0.2500  0.0384  -3.6481   0.0000   0.0503
  -7.500  -0.4162   0.03487   0.02576  -0.0832  0.2500  0.0396  -3.5934   0.0000   0.0400
  -7.000  -0.3795   0.03034   0.02051  -0.0823  0.2500  0.0407  -3.4054   0.0000   0.0228
  -6.500  -0.3358   0.02695   0.01655  -0.0814  0.2500  0.0412  -3.1643   0.0000  -0.0030
  -6.000  -0.2882   0.02447   0.01364  -0.0805  0.2500  0.0422  -2.8975   0.0000  -0.0406
  -5.500  -0.2385   0.02259   0.01146  -0.0798  0.2500  0.0437  -2.6669   0.0000  -0.0963
  -5.000  -0.1878   0.02104   0.00963  -0.0790  0.2500  0.0460  -2.4326   0.0000  -0.1839
  -4.500  -0.1364   0.01977   0.00813  -0.0782  0.2500  0.0487  -2.2484   0.0000  -0.3387
  -4.000  -0.0852   0.01871   0.00694  -0.0774  0.2500  0.0514  -2.0530   0.0000  -0.6795
  -3.500  -0.0333   0.01798   0.00614  -0.0768  0.2500  0.0556  -1.8404   0.0000  -2.1044
  -3.000   0.0189   0.01729   0.00536  -0.0761  0.2500  0.0646  -1.6360   0.0000   4.3446
  -2.500   0.0716   0.01669   0.00466  -0.0754  0.2500  0.0795  -1.4449   0.0000   1.3172
  -2.000   0.1236   0.01600   0.00415  -0.0748  0.2500  0.1296  -1.2520   0.0000   0.8609
  -1.500   0.1754   0.01543   0.00391  -0.0743  0.2500  0.2288  -1.0512   0.0000   0.6758
  -1.000   0.2293   0.01534   0.00370  -0.0738  0.2500  0.2500  -0.8507   0.0000   0.5723
  -0.500   0.2835   0.01538   0.00355  -0.0733  0.2500  0.2500  -0.6939   0.0000   0.5079
   0.000   0.3376   0.01545   0.00349  -0.0729  0.2500  0.2500  -0.7135   0.0000   0.4642
   0.500   0.3915   0.01555   0.00350  -0.0724  0.2500  0.2500  -0.7647   0.0000   0.4326
   1.000   0.4452   0.01568   0.00355  -0.0719  0.2500  0.2500  -0.8162   0.0000   0.4087
   1.500   0.4986   0.01584   0.00367  -0.0714  0.2500  0.2500  -0.8682   0.0000   0.3898
   2.000   0.5518   0.01601   0.00384  -0.0709  0.2500  0.2500  -0.9221   0.0000   0.3746
   2.500   0.6047   0.01622   0.00406  -0.0703  0.2500  0.2500  -0.9783   0.0000   0.3620
   3.000   0.6573   0.01645   0.00434  -0.0697  0.2500  0.2500  -1.0349   0.0000   0.3513
   3.500   0.7095   0.01671   0.00466  -0.0691  0.2500  0.2500  -1.0950   0.0000   0.3421
   4.000   0.7614   0.01699   0.00506  -0.0684  0.2500  0.2500  -1.2022   0.0000   0.3341
   4.500   0.8127   0.01731   0.00548  -0.0677  0.2500  0.2500  -1.3186   0.0000   0.3270
   5.000   0.8634   0.01765   0.00600  -0.0669  0.2500  0.2500  -1.4461   0.0000   0.3207
   5.500   0.9136   0.01804   0.00654  -0.0660  0.2500  0.2500  -1.5785   0.0000   0.3149
   6.000   0.9632   0.01845   0.00714  -0.0650  0.2500  0.2500  -1.7128   0.0000   0.3096
   6.500   1.0123   0.01892   0.00781  -0.0640  0.2500  0.2500  -1.8489   0.0000   0.3048
   7.000   1.0607   0.01942   0.00861  -0.0629  0.2500  0.2500  -1.9975   0.0000   0.3002
   7.500   1.1083   0.01998   0.00944  -0.0616  0.2500  0.2500  -2.1863   0.0000   0.2960
   8.000   1.1551   0.02060   0.01036  -0.0603  0.2500  0.2500  -2.5184   0.0000   0.2919
   8.500   1.2010   0.02129   0.01143  -0.0589  0.2500  0.2500  -2.8783   0.0000   0.2881
   9.000   1.2363   0.02233   0.01252  -0.0560  0.2202  0.2500  -3.2257   0.0000   0.2836
   9.500   1.2592   0.02386   0.01389  -0.0515  0.1708  0.2500  -3.5461   0.0000   0.2785
  10.000   1.2807   0.02584   0.01575  -0.0474  0.1374  0.2500  -3.8661   0.0000   0.2738
  10.500   1.3033   0.02783   0.01781  -0.0437  0.1172  0.2500  -4.1961   0.0000   0.2696
  11.000   1.3234   0.03005   0.02021  -0.0402  0.1019  0.2500  -4.5198   0.0000   0.2656
  11.500   1.3404   0.03262   0.02288  -0.0368  0.0847  0.2500  -4.8319   0.0000   0.2619
  12.000   1.3560   0.03544   0.02585  -0.0339  0.0678  0.2500  -5.1674   0.0000   0.2586
  12.500   1.3626   0.03922   0.02968  -0.0310  0.0460  0.2500  -5.4550   0.0000   0.2554
  13.000   1.3583   0.04433   0.03476  -0.0284  0.0284  0.2500  -5.6744   0.0000   0.2526
  13.500   1.3533   0.04994   0.04054  -0.0267  0.0239  0.2500  -5.8794   0.0000   0.2504
  14.000   1.3441   0.05648   0.04734  -0.0258  0.0213  0.2500  -6.0461   0.0000   0.2489
  14.500   1.3306   0.06413   0.05530  -0.0261  0.0199  0.2500  -6.1743   0.0000   0.2483
  15.000   1.3173   0.07232   0.06390  -0.0274  0.0190  0.2500  -6.3023   0.0000   0.2484
  15.500   1.3003   0.08165   0.07357  -0.0297  0.0182  0.2500  -6.3929   0.0000   0.2494
  16.000   1.2806   0.09189   0.08414  -0.0328  0.0175  0.2500  -6.4475   0.0000   0.2512
  16.500   1.2597   0.10280   0.09537  -0.0367  0.0169  0.2500  -6.4741   0.0000   0.2537
  17.000   1.2392   0.11399   0.10686  -0.0410  0.0165  0.2500  -6.4797   0.0000   0.2567
  17.500   1.2210   0.12503   0.11817  -0.0456  0.0162  0.2500  -6.4826   0.0000   0.2599
  18.000   1.2054   0.13587   0.12926  -0.0505  0.0158  0.2500  -6.4854   0.0000   0.2635
  18.500   1.1924   0.14647   0.14011  -0.0556  0.0154  0.2500  -6.4855   0.0000   0.2672
  19.000   1.1811   0.15709   0.15097  -0.0610  0.0150  0.2500  -6.4727   0.0000   0.2713
  19.500   1.1693   0.16840   0.16252  -0.0673  0.0147  0.2500  -6.4179   0.0000   0.2762
  20.000   1.1558   0.18086   0.17521  -0.0746  0.0144  0.2500  -6.2928   0.0000   0.2823


