xflr5 v6.42

 Calculated polar for: CLARK_Y

 1 1 Reynolds number fixed          Mach number fixed         

 xtrf =   0.250 (top)        0.250 (bottom)
 Mach =   0.000     Re =     0.100 e 6     Ncrit =   5.000

  alpha     CL        CD       CDp       Cm    Top Xtr Bot Xtr   Cpmin    Chinge    XCp    
 ------- -------- --------- --------- -------- ------- ------- -------- --------- ---------
 -10.000  -0.3603   0.10551   0.09740  -0.0419  0.2500  0.0505  -2.0022   0.0000   0.1208
  -9.500  -0.3586   0.09710   0.08902  -0.0461  0.2500  0.0504  -2.0850   0.0000   0.1091
  -9.000  -0.3624   0.08742   0.07939  -0.0516  0.2500  0.0490  -2.2406   0.0000   0.0960
  -8.500  -0.3746   0.07580   0.06787  -0.0603  0.2500  0.0480  -2.4749   0.0000   0.0784
  -8.000  -0.4050   0.05646   0.04827  -0.0768  0.2500  0.0467  -3.0272   0.0000   0.0505
  -7.500  -0.3885   0.04935   0.04074  -0.0794  0.2500  0.0491  -2.9711   0.0000   0.0362
  -7.000  -0.3670   0.04146   0.03205  -0.0807  0.2500  0.0507  -2.9497   0.0000   0.0206
  -6.500  -0.3340   0.03520   0.02489  -0.0805  0.2500  0.0514  -2.8670   0.0000  -0.0009
  -6.000  -0.2916   0.03091   0.01980  -0.0798  0.2500  0.0529  -2.7134   0.0000  -0.0340
  -5.500  -0.2439   0.02779   0.01603  -0.0790  0.2500  0.0548  -2.5194   0.0000  -0.0851
  -5.000  -0.1931   0.02584   0.01354  -0.0783  0.2500  0.0579  -2.3150   0.0000  -0.1682
  -4.500  -0.1429   0.02352   0.01103  -0.0777  0.2500  0.0620  -2.1222   0.0000  -0.3084
  -4.000  -0.0913   0.02202   0.00934  -0.0770  0.2500  0.0659  -1.9510   0.0000  -0.6125
  -3.500  -0.0395   0.02081   0.00795  -0.0761  0.2500  0.0720  -1.7804   0.0000  -1.7149
  -3.000   0.0119   0.01968   0.00672  -0.0753  0.2500  0.0834  -1.6095   0.0000   6.6803
  -2.500   0.0638   0.01878   0.00585  -0.0746  0.2500  0.1208  -1.4260   0.0000   1.4355
  -2.000   0.1154   0.01793   0.00535  -0.0741  0.2500  0.2081  -1.2342   0.0000   0.8979
  -1.500   0.1690   0.01766   0.00494  -0.0735  0.2500  0.2500  -1.0560   0.0000   0.6875
  -1.000   0.2235   0.01766   0.00466  -0.0731  0.2500  0.2500  -0.8836   0.0000   0.5775
  -0.500   0.2779   0.01771   0.00448  -0.0727  0.2500  0.2500  -0.7142   0.0000   0.5108
   0.000   0.3320   0.01780   0.00440  -0.0722  0.2500  0.2500  -0.7084   0.0000   0.4660
   0.500   0.3858   0.01793   0.00440  -0.0718  0.2500  0.2500  -0.7577   0.0000   0.4338
   1.000   0.4394   0.01809   0.00447  -0.0713  0.2500  0.2500  -0.8088   0.0000   0.4094
   1.500   0.4927   0.01828   0.00460  -0.0708  0.2500  0.2500  -0.8627   0.0000   0.3903
   2.000   0.5456   0.01850   0.00481  -0.0703  0.2500  0.2500  -0.9169   0.0000   0.3749
   2.500   0.5982   0.01876   0.00507  -0.0697  0.2500  0.2500  -0.9713   0.0000   0.3622
   3.000   0.6503   0.01904   0.00541  -0.0691  0.2500  0.2500  -1.0262   0.0000   0.3514
   3.500   0.7020   0.01935   0.00580  -0.0684  0.2500  0.2500  -1.0865   0.0000   0.3421
   4.000   0.7532   0.01970   0.00625  -0.0676  0.2500  0.2500  -1.1895   0.0000   0.3340
   4.500   0.8038   0.02009   0.00679  -0.0668  0.2500  0.2500  -1.3071   0.0000   0.3268
   5.000   0.8539   0.02051   0.00738  -0.0659  0.2500  0.2500  -1.4268   0.0000   0.3204
   5.500   0.9033   0.02097   0.00806  -0.0649  0.2500  0.2500  -1.5498   0.0000   0.3146
   6.000   0.9520   0.02148   0.00880  -0.0638  0.2500  0.2500  -1.6878   0.0000   0.3092
   6.500   1.0000   0.02203   0.00961  -0.0627  0.2500  0.2500  -1.8272   0.0000   0.3043
   7.000   1.0472   0.02264   0.01054  -0.0614  0.2500  0.2500  -1.9677   0.0000   0.2996
   7.500   1.0935   0.02331   0.01154  -0.0600  0.2500  0.2500  -2.1402   0.0000   0.2953
   8.000   1.1390   0.02405   0.01263  -0.0585  0.2500  0.2500  -2.4639   0.0000   0.2911
   8.500   1.1835   0.02488   0.01390  -0.0569  0.2500  0.2500  -2.7973   0.0000   0.2872
   9.000   1.2274   0.02583   0.01528  -0.0552  0.2500  0.2500  -3.1392   0.0000   0.2834
   9.500   1.2666   0.02697   0.01683  -0.0529  0.2405  0.2500  -3.5043   0.0000   0.2794
  10.000   1.2839   0.02858   0.01849  -0.0478  0.2006  0.2500  -3.8086   0.0000   0.2741
  10.500   1.2955   0.03101   0.02075  -0.0428  0.1626  0.2500  -4.0916   0.0000   0.2692
  11.000   1.3095   0.03367   0.02348  -0.0388  0.1406  0.2500  -4.3838   0.0000   0.2649
  11.500   1.3220   0.03664   0.02659  -0.0352  0.1234  0.2500  -4.6699   0.0000   0.2611
  12.000   1.3311   0.04007   0.03018  -0.0321  0.1056  0.2500  -4.9416   0.0000   0.2577
  12.500   1.3377   0.04397   0.03437  -0.0296  0.0920  0.2500  -5.1946   0.0000   0.2548
  13.000   1.3360   0.04898   0.03954  -0.0276  0.0778  0.2500  -5.3979   0.0000   0.2524
  13.500   1.3294   0.05499   0.04576  -0.0265  0.0625  0.2500  -5.5605   0.0000   0.2507
  14.000   1.3170   0.06220   0.05318  -0.0264  0.0459  0.2500  -5.6751   0.0000   0.2497
  14.500   1.2948   0.07135   0.06248  -0.0277  0.0360  0.2500  -5.7240   0.0000   0.2500
  15.000   1.2711   0.08156   0.07293  -0.0302  0.0315  0.2500  -5.7445   0.0000   0.2514
  15.500   1.2448   0.09288   0.08451  -0.0338  0.0289  0.2500  -5.7304   0.0000   0.2538
  16.000   1.2182   0.10494   0.09681  -0.0382  0.0274  0.2500  -5.6903   0.0000   0.2571
  17.000   1.1762   0.12791   0.12027  -0.0473  0.0251  0.2500  -5.6169   0.0000   0.2641
  17.500   1.1631   0.13835   0.13097  -0.0518  0.0242  0.2500  -5.6049   0.0000   0.2674
  18.000   1.1526   0.14855   0.14144  -0.0564  0.0232  0.2500  -5.5915   0.0000   0.2709
  18.500   1.1431   0.15883   0.15201  -0.0614  0.0225  0.2500  -5.5640   0.0000   0.2747
  19.000   1.1336   0.16964   0.16306  -0.0669  0.0218  0.2500  -5.5285   0.0000   0.2791
  19.500   1.1209   0.18207   0.17576  -0.0736  0.0213  0.2500  -5.4032   0.0000   0.2850
  20.000   1.0890   0.20212   0.19608  -0.0847  0.0213  0.2500  -4.8669   0.0000   0.2969


