xflr5 v6.42

 Calculated polar for: CLARK_Y

 1 1 Reynolds number fixed          Mach number fixed         

 xtrf =   0.250 (top)        0.250 (bottom)
 Mach =   0.000     Re =     0.025 e 6     Ncrit =   5.000

  alpha     CL        CD       CDp       Cm    Top Xtr Bot Xtr   Cpmin    Chinge    XCp    
 ------- -------- --------- --------- -------- ------- ------- -------- --------- ---------
 -10.000  -0.3522   0.12429   0.11117  -0.0347  0.2500  0.1560  -1.5618   0.0000   0.1392
  -9.500  -0.3476   0.11607   0.10294  -0.0390  0.2500  0.1367  -1.6439   0.0000   0.1261
  -9.000  -0.3445   0.10840   0.09534  -0.0426  0.2500  0.1311  -1.6973   0.0000   0.1154
  -8.500  -0.3421   0.10112   0.08815  -0.0459  0.2500  0.1310  -1.7339   0.0000   0.1055
  -8.000  -0.3436   0.09368   0.08080  -0.0498  0.2500  0.1305  -1.7853   0.0000   0.0955
  -7.500  -0.3457   0.08492   0.07208  -0.0560  0.2500  0.1280  -1.8776   0.0000   0.0793
  -7.000  -0.3514   0.07477   0.06171  -0.0637  0.2500  0.1237  -2.0432   0.0000   0.0606
  -6.000  -0.3138   0.05888   0.04483  -0.0687  0.2500  0.1234  -2.0787   0.0000   0.0230
  -5.500  -0.2809   0.05271   0.03809  -0.0692  0.2500  0.1263  -1.9948   0.0000  -0.0044
  -5.000  -0.2420   0.04814   0.03301  -0.0691  0.2500  0.1367  -1.8810   0.0000  -0.0441
  -4.500  -0.1950   0.04314   0.02677  -0.0699  0.2500  0.1465  -1.8171   0.0000  -0.1185
  -4.000  -0.1454   0.03950   0.02263  -0.0695  0.2500  0.1577  -1.7009   0.0000  -0.2397
  -3.500  -0.0938   0.03664   0.01923  -0.0690  0.2500  0.1832  -1.5989   0.0000  -0.5010
  -3.000  -0.0441   0.03427   0.01671  -0.0681  0.2500  0.2336  -1.4829   0.0000  -1.3224
  -2.500   0.0107   0.03139   0.01332  -0.0667  0.2500  0.2500  -1.3975   0.0000   6.5991
  -2.000   0.0609   0.03055   0.01180  -0.0654  0.2500  0.2500  -1.2392   0.0000   1.3372
  -1.500   0.1104   0.03030   0.01096  -0.0642  0.2500  0.2500  -1.0875   0.0000   0.8362
  -1.000   0.1597   0.03024   0.01038  -0.0631  0.2500  0.2500  -0.9315   0.0000   0.6466
  -0.500   0.2087   0.03030   0.01006  -0.0621  0.2500  0.2500  -0.7766   0.0000   0.5469
   0.000   0.2574   0.03046   0.00989  -0.0610  0.2500  0.2500  -0.6530   0.0000   0.4855
   0.500   0.3055   0.03072   0.00991  -0.0599  0.2500  0.2500  -0.6967   0.0000   0.4437
   1.000   0.3532   0.03106   0.01008  -0.0588  0.2500  0.2500  -0.7403   0.0000   0.4134
   1.500   0.4004   0.03148   0.01039  -0.0576  0.2500  0.2500  -0.7872   0.0000   0.3903
   2.000   0.4469   0.03198   0.01085  -0.0564  0.2500  0.2500  -0.8342   0.0000   0.3722
   2.500   0.4927   0.03257   0.01146  -0.0552  0.2500  0.2500  -0.8811   0.0000   0.3574
   3.000   0.5377   0.03324   0.01220  -0.0539  0.2500  0.2500  -0.9283   0.0000   0.3452
   3.500   0.5819   0.03400   0.01308  -0.0526  0.2500  0.2500  -0.9788   0.0000   0.3348
   4.000   0.6252   0.03487   0.01415  -0.0512  0.2500  0.2500  -1.0350   0.0000   0.3258
   4.500   0.6674   0.03584   0.01534  -0.0497  0.2500  0.2500  -1.1167   0.0000   0.3180
   5.000   0.7083   0.03692   0.01676  -0.0482  0.2500  0.2500  -1.2160   0.0000   0.3110
   5.500   0.7473   0.03814   0.01829  -0.0465  0.2500  0.2500  -1.3152   0.0000   0.3047
   6.000   0.7847   0.03951   0.02003  -0.0448  0.2500  0.2500  -1.4136   0.0000   0.2990
   6.500   0.8210   0.04106   0.02206  -0.0431  0.2500  0.2500  -1.5114   0.0000   0.2938
   7.000   0.8564   0.04283   0.02430  -0.0416  0.2500  0.2500  -1.6120   0.0000   0.2893
   7.500   0.8902   0.04484   0.02682  -0.0401  0.2500  0.2500  -1.7190   0.0000   0.2851
   8.000   0.9220   0.04713   0.02972  -0.0386  0.2500  0.2500  -1.8229   0.0000   0.2814
   8.500   0.9515   0.04973   0.03291  -0.0372  0.2500  0.2500  -1.9226   0.0000   0.2780
   9.000   0.9785   0.05270   0.03650  -0.0359  0.2500  0.2500  -2.0912   0.0000   0.2749
   9.500   1.0030   0.05612   0.04056  -0.0347  0.2500  0.2500  -2.3157   0.0000   0.2721
  10.000   1.0246   0.06010   0.04527  -0.0336  0.2500  0.2500  -2.5308   0.0000   0.2697
  10.500   1.0426   0.06484   0.05066  -0.0328  0.2500  0.2500  -2.7304   0.0000   0.2676
  11.000   1.0560   0.07084   0.05732  -0.0324  0.2500  0.2500  -2.9011   0.0000   0.2662
  11.500   1.0538   0.08033   0.06742  -0.0334  0.2500  0.2500  -2.9749   0.0000   0.2667
  12.000   1.0113   0.09844   0.08584  -0.0389  0.2500  0.2500  -2.7976   0.0000   0.2731
  12.500   0.9629   0.11904   0.10650  -0.0468  0.2500  0.2500  -2.5497   0.0000   0.2829
  13.000   0.9437   0.13148   0.11905  -0.0507  0.2392  0.2500  -2.4927   0.0000   0.2876
  13.500   0.9494   0.13997   0.12774  -0.0522  0.2301  0.2500  -2.5738   0.0000   0.2881
  14.000   0.9255   0.15316   0.14098  -0.0578  0.2225  0.2500  -2.4600   0.0000   0.2952
  14.500   0.9488   0.15801   0.14613  -0.0571  0.2084  0.2500  -2.6579   0.0000   0.2920
  15.000   0.9283   0.17037   0.15854  -0.0632  0.2012  0.2500  -2.5410   0.0000   0.2994
  15.500   0.9269   0.18044   0.16879  -0.0674  0.1964  0.2500  -2.5334   0.0000   0.3034
  16.000   0.9414   0.18751   0.17617  -0.0687  0.1837  0.2500  -2.6474   0.0000   0.3028
  16.500   0.9352   0.19718   0.18595  -0.0738  0.1748  0.2500  -2.5754   0.0000   0.3081
  17.000   0.9445   0.20459   0.19352  -0.0762  0.1579  0.2500  -2.6097   0.0000   0.3090
  17.500   0.9532   0.21122   0.20026  -0.0786  0.1361  0.2500  -2.6345   0.0000   0.3098
  18.000   0.9653   0.21798   0.20710  -0.0808  0.1174  0.2500  -2.6695   0.0000   0.3101
  18.500   0.9651   0.22798   0.21709  -0.0868  0.1104  0.2500  -2.5341   0.0000   0.3157
  19.000   0.9837   0.23501   0.22420  -0.0883  0.0984  0.2500  -2.6074   0.0000   0.3145
  19.500   0.9855   0.24480   0.23396  -0.0949  0.0952  0.2500  -2.4633   0.0000   0.3203
  20.000   0.9943   0.25423   0.24342  -0.1001  0.0943  0.2500  -2.3724   0.0000   0.3239


