xflr5 v6.42

 Calculated polar for: clarky

 1 1 Reynolds number fixed          Mach number fixed         

 xtrf =   0.250 (top)        0.250 (bottom)
 Mach =   0.000     Re =     0.025 e 6     Ncrit =   5.000

  alpha     CL        CD       CDp       Cm    Top Xtr Bot Xtr   Cpmin    Chinge    XCp    
 ------- -------- --------- --------- -------- ------- ------- -------- --------- ---------
  -9.500  -0.3524   0.11612   0.10302  -0.0408  0.2500  0.1374  -1.6664   0.0000   0.1227
  -9.000  -0.3403   0.10827   0.09518  -0.0430  0.2500  0.1304  -1.6586   0.0000   0.1125
  -8.500  -0.3455   0.09998   0.08703  -0.0483  0.2500  0.1236  -1.7655   0.0000   0.0998
  -8.000  -0.3542   0.09110   0.07819  -0.0556  0.2500  0.1187  -1.9146   0.0000   0.0836
  -7.500  -0.3470   0.08308   0.07014  -0.0590  0.2500  0.1171  -1.9476   0.0000   0.0712
  -7.000  -0.3409   0.07483   0.06176  -0.0627  0.2500  0.1164  -1.9976   0.0000   0.0575
  -6.500  -0.3351   0.06611   0.05257  -0.0673  0.2500  0.1194  -2.0794   0.0000   0.0410
  -6.000  -0.3078   0.06104   0.04741  -0.0667  0.2500  0.1279  -1.9406   0.0000   0.0254
  -5.500  -0.2797   0.05415   0.03987  -0.0682  0.2500  0.1311  -1.9179   0.0000  -0.0021
  -5.000  -0.2422   0.04791   0.03264  -0.0692  0.2500  0.1343  -1.8925   0.0000  -0.0444
  -4.500  -0.1950   0.04272   0.02626  -0.0698  0.2500  0.1401  -1.8320   0.0000  -0.1181
  -4.000  -0.1456   0.03929   0.02231  -0.0693  0.2500  0.1508  -1.7177   0.0000  -0.2378
  -3.500  -0.0948   0.03663   0.01905  -0.0687  0.2500  0.1787  -1.6122   0.0000  -0.4909
  -3.000  -0.0457   0.03429   0.01663  -0.0677  0.2500  0.2248  -1.4938   0.0000  -1.2575
  -2.500   0.0075   0.03141   0.01346  -0.0662  0.2500  0.2500  -1.4080   0.0000   9.2604
  -2.000   0.0575   0.03049   0.01186  -0.0648  0.2500  0.2500  -1.2551   0.0000   1.3905
  -1.500   0.1067   0.03022   0.01095  -0.0635  0.2500  0.2500  -1.0783   0.0000   0.8499
  -1.000   0.1557   0.03016   0.01040  -0.0624  0.2500  0.2500  -0.9151   0.0000   0.6519
  -0.500   0.2044   0.03022   0.01005  -0.0612  0.2500  0.2500  -0.7721   0.0000   0.5492
   0.000   0.2528   0.03038   0.00988  -0.0601  0.2500  0.2500  -0.6493   0.0000   0.4863
   0.500   0.3007   0.03063   0.00990  -0.0590  0.2500  0.2500  -0.6942   0.0000   0.4438
   1.000   0.3482   0.03096   0.01006  -0.0578  0.2500  0.2500  -0.7390   0.0000   0.4130
   1.500   0.3951   0.03138   0.01037  -0.0566  0.2500  0.2500  -0.7838   0.0000   0.3897
   2.000   0.4414   0.03188   0.01081  -0.0554  0.2500  0.2500  -0.8296   0.0000   0.3714
   2.500   0.4871   0.03246   0.01140  -0.0541  0.2500  0.2500  -0.8775   0.0000   0.3565
   3.000   0.5320   0.03313   0.01215  -0.0528  0.2500  0.2500  -0.9251   0.0000   0.3442
   3.500   0.5760   0.03389   0.01305  -0.0515  0.2500  0.2500  -0.9754   0.0000   0.3338
   4.000   0.6192   0.03475   0.01408  -0.0501  0.2500  0.2500  -1.0307   0.0000   0.3248
   4.500   0.6613   0.03572   0.01531  -0.0486  0.2500  0.2500  -1.1125   0.0000   0.3170
   5.000   0.7020   0.03680   0.01666  -0.0471  0.2500  0.2500  -1.2098   0.0000   0.3100
   5.500   0.7409   0.03801   0.01819  -0.0454  0.2500  0.2500  -1.3065   0.0000   0.3037
   6.000   0.7783   0.03937   0.02000  -0.0437  0.2500  0.2500  -1.4038   0.0000   0.2980
   6.500   0.8149   0.04093   0.02196  -0.0421  0.2500  0.2500  -1.5086   0.0000   0.2929
   7.000   0.8504   0.04271   0.02418  -0.0406  0.2500  0.2500  -1.6126   0.0000   0.2884
   7.500   0.8842   0.04472   0.02669  -0.0391  0.2500  0.2500  -1.7142   0.0000   0.2844
   8.000   0.9159   0.04701   0.02964  -0.0377  0.2500  0.2500  -1.8126   0.0000   0.2807
   8.500   0.9455   0.04962   0.03283  -0.0363  0.2500  0.2500  -1.9066   0.0000   0.2773
   9.000   0.9723   0.05260   0.03644  -0.0350  0.2500  0.2500  -2.0637   0.0000   0.2742
   9.500   0.9966   0.05605   0.04052  -0.0339  0.2500  0.2500  -2.2781   0.0000   0.2715
  10.000   1.0178   0.06009   0.04533  -0.0329  0.2500  0.2500  -2.4862   0.0000   0.2692
  10.500   1.0352   0.06492   0.05080  -0.0321  0.2500  0.2500  -2.6920   0.0000   0.2672
  11.000   1.0476   0.07108   0.05761  -0.0319  0.2500  0.2500  -2.8663   0.0000   0.2659
  11.500   1.0430   0.08100   0.06811  -0.0331  0.2500  0.2500  -2.9323   0.0000   0.2667
  12.000   0.9984   0.09970   0.08709  -0.0391  0.2500  0.2500  -2.7364   0.0000   0.2738
  12.500   0.9536   0.11950   0.10696  -0.0467  0.2500  0.2500  -2.5046   0.0000   0.2834
  13.000   0.9567   0.12880   0.11649  -0.0484  0.2417  0.2500  -2.5778   0.0000   0.2844
  13.500   0.9294   0.14229   0.12998  -0.0538  0.2319  0.2500  -2.4632   0.0000   0.2912
  14.000   0.9498   0.14790   0.13587  -0.0536  0.2197  0.2500  -2.6537   0.0000   0.2889
  14.500   0.9261   0.16053   0.14853  -0.0597  0.2108  0.2500  -2.5325   0.0000   0.2964
  15.000   0.9310   0.16958   0.15779  -0.0627  0.2044  0.2500  -2.5842   0.0000   0.2986
  15.500   0.9320   0.17813   0.16648  -0.0660  0.1936  0.2500  -2.6108   0.0000   0.3014
  16.000   0.9386   0.18658   0.17514  -0.0691  0.1845  0.2500  -2.6495   0.0000   0.3035
  16.500   0.9417   0.19532   0.18401  -0.0729  0.1746  0.2500  -2.6425   0.0000   0.3065
  17.000   0.9536   0.20233   0.19120  -0.0750  0.1569  0.2500  -2.6915   0.0000   0.3069
  17.500   0.9592   0.20886   0.19780  -0.0781  0.1350  0.2500  -2.6895   0.0000   0.3088
  18.000   0.9710   0.21563   0.20463  -0.0807  0.1171  0.2500  -2.7101   0.0000   0.3095
  18.500   0.9720   0.22485   0.21385  -0.0867  0.1080  0.2500  -2.5852   0.0000   0.3148
  19.000   0.9915   0.23225   0.22148  -0.0883  0.0988  0.2500  -2.6721   0.0000   0.3138
  19.500   0.9917   0.24128   0.23046  -0.0956  0.0935  0.2500  -2.5309   0.0000   0.3203
  20.000   1.0017   0.24946   0.23867  -0.1006  0.0886  0.2500  -2.4867   0.0000   0.3235


