xflr5 v6.42

 Calculated polar for: clarky

 1 1 Reynolds number fixed          Mach number fixed         

 xtrf =   0.250 (top)        0.250 (bottom)
 Mach =   0.000     Re =     0.020 e 6     Ncrit =   5.000

  alpha     CL        CD       CDp       Cm    Top Xtr Bot Xtr   Cpmin    Chinge    XCp    
 ------- -------- --------- --------- -------- ------- ------- -------- --------- ---------
 -10.000  -0.3520   0.12683   0.11260  -0.0343  0.2500  0.1725  -1.5391   0.0000   0.1404
  -9.500  -0.3513   0.11917   0.10499  -0.0389  0.2500  0.1562  -1.6140   0.0000   0.1279
  -9.000  -0.3421   0.11152   0.09737  -0.0415  0.2500  0.1493  -1.6201   0.0000   0.1177
  -8.500  -0.3482   0.10371   0.08972  -0.0466  0.2500  0.1428  -1.7240   0.0000   0.1062
  -8.000  -0.3576   0.09556   0.08162  -0.0533  0.2500  0.1398  -1.8535   0.0000   0.0919
  -7.500  -0.3372   0.08961   0.07570  -0.0522  0.2500  0.1480  -1.7562   0.0000   0.0861
  -7.000  -0.3324   0.08222   0.06828  -0.0557  0.2500  0.1509  -1.7870   0.0000   0.0740
  -6.500  -0.3244   0.07436   0.06027  -0.0594  0.2500  0.1512  -1.8215   0.0000   0.0590
  -6.000  -0.3089   0.06648   0.05202  -0.0626  0.2500  0.1507  -1.8371   0.0000   0.0397
  -5.500  -0.2837   0.05908   0.04401  -0.0651  0.2500  0.1522  -1.8436   0.0000   0.0127
  -5.000  -0.2474   0.05244   0.03637  -0.0671  0.2500  0.1562  -1.8291   0.0000  -0.0297
  -4.500  -0.2039   0.04725   0.03027  -0.0678  0.2500  0.1636  -1.7595   0.0000  -0.0918
  -4.000  -0.1582   0.04369   0.02611  -0.0674  0.2500  0.1852  -1.6576   0.0000  -0.1865
  -3.500  -0.1088   0.04048   0.02234  -0.0669  0.2500  0.2153  -1.5702   0.0000  -0.3779
  -3.000  -0.0555   0.03715   0.01855  -0.0662  0.2500  0.2500  -1.4904   0.0000  -0.9637
  -2.500  -0.0008   0.03417   0.01496  -0.0649  0.2500  0.2500  -1.4075   0.0000  -84.3060
  -2.000   0.0477   0.03329   0.01337  -0.0633  0.2500  0.2500  -1.2534   0.0000   1.5954
  -1.500   0.0957   0.03297   0.01239  -0.0620  0.2500  0.2500  -1.0809   0.0000   0.9029
  -1.000   0.1436   0.03288   0.01178  -0.0607  0.2500  0.2500  -0.9239   0.0000   0.6746
  -0.500   0.1913   0.03294   0.01139  -0.0595  0.2500  0.2500  -0.7835   0.0000   0.5610
   0.000   0.2386   0.03311   0.01121  -0.0583  0.2500  0.2500  -0.6456   0.0000   0.4930
   0.500   0.2854   0.03339   0.01123  -0.0571  0.2500  0.2500  -0.6816   0.0000   0.4478
   1.000   0.3316   0.03377   0.01143  -0.0559  0.2500  0.2500  -0.7251   0.0000   0.4155
   1.500   0.3773   0.03424   0.01177  -0.0546  0.2500  0.2500  -0.7684   0.0000   0.3911
   2.000   0.4223   0.03481   0.01228  -0.0533  0.2500  0.2500  -0.8123   0.0000   0.3721
   2.500   0.4664   0.03548   0.01296  -0.0520  0.2500  0.2500  -0.8584   0.0000   0.3568
   3.000   0.5098   0.03625   0.01382  -0.0506  0.2500  0.2500  -0.9040   0.0000   0.3441
   3.500   0.5520   0.03714   0.01483  -0.0492  0.2500  0.2500  -0.9519   0.0000   0.3335
   4.000   0.5930   0.03814   0.01604  -0.0477  0.2500  0.2500  -1.0034   0.0000   0.3243
   4.500   0.6323   0.03927   0.01741  -0.0461  0.2500  0.2500  -1.0742   0.0000   0.3163
   5.000   0.6703   0.04057   0.01903  -0.0445  0.2500  0.2500  -1.1627   0.0000   0.3092
   5.500   0.7070   0.04205   0.02085  -0.0429  0.2500  0.2500  -1.2543   0.0000   0.3030
   6.000   0.7427   0.04375   0.02303  -0.0414  0.2500  0.2500  -1.3453   0.0000   0.2976
   6.500   0.7771   0.04570   0.02541  -0.0401  0.2500  0.2500  -1.4393   0.0000   0.2929
   7.000   0.8095   0.04793   0.02812  -0.0389  0.2500  0.2500  -1.5350   0.0000   0.2887
   7.500   0.8397   0.05048   0.03119  -0.0377  0.2500  0.2500  -1.6269   0.0000   0.2850
   8.000   0.8674   0.05342   0.03468  -0.0367  0.2500  0.2500  -1.7140   0.0000   0.2818
   8.500   0.8925   0.05679   0.03878  -0.0358  0.2500  0.2500  -1.7952   0.0000   0.2790
   9.000   0.9147   0.06068   0.04327  -0.0352  0.2500  0.2500  -1.8691   0.0000   0.2766
   9.500   0.9339   0.06520   0.04840  -0.0347  0.2500  0.2500  -2.0099   0.0000   0.2747
  10.000   0.9500   0.07038   0.05418  -0.0346  0.2500  0.2500  -2.1787   0.0000   0.2733
  10.500   0.9627   0.07640   0.06078  -0.0347  0.2500  0.2500  -2.3304   0.0000   0.2723
  11.000   0.9703   0.08389   0.06895  -0.0355  0.2500  0.2500  -2.4560   0.0000   0.2722
  11.500   0.9671   0.09435   0.07985  -0.0378  0.2500  0.2500  -2.5115   0.0000   0.2742
  12.000   0.9523   0.10799   0.09380  -0.0419  0.2500  0.2500  -2.4771   0.0000   0.2787
  12.500   0.9345   0.12239   0.10841  -0.0467  0.2500  0.2500  -2.4082   0.0000   0.2844
  13.000   0.9199   0.13601   0.12219  -0.0516  0.2500  0.2500  -2.3475   0.0000   0.2901
  13.500   0.9101   0.14842   0.13476  -0.0563  0.2500  0.2500  -2.3090   0.0000   0.2953
  14.000   0.9048   0.15977   0.14627  -0.0607  0.2500  0.2500  -2.2903   0.0000   0.3001
  14.500   0.9066   0.16938   0.15608  -0.0641  0.2461  0.2500  -2.3155   0.0000   0.3031
  15.000   0.9133   0.17727   0.16416  -0.0665  0.2353  0.2500  -2.3833   0.0000   0.3045
  15.500   0.9124   0.18638   0.17344  -0.0706  0.2313  0.2500  -2.3804   0.0000   0.3083
  16.000   0.9262   0.19350   0.18078  -0.0723  0.2166  0.2500  -2.4774   0.0000   0.3083
  16.500   0.9261   0.20195   0.18938  -0.0767  0.2102  0.2500  -2.4493   0.0000   0.3123
  17.000   0.9386   0.20961   0.19723  -0.0792  0.1959  0.2500  -2.4918   0.0000   0.3130
  17.500   0.9534   0.21728   0.20507  -0.0812  0.1786  0.2500  -2.5279   0.0000   0.3130
  18.000   0.9609   0.22362   0.21147  -0.0843  0.1572  0.2500  -2.5178   0.0000   0.3146
  18.500   0.9662   0.23144   0.21933  -0.0891  0.1462  0.2500  -2.4443   0.0000   0.3183
  19.000   0.9764   0.23872   0.22662  -0.0929  0.1328  0.2500  -2.4150   0.0000   0.3203
  19.500   0.9880   0.24672   0.23485  -0.0972  0.1260  0.2500  -2.3941   0.0000   0.3226
  20.000   1.0081   0.25564   0.24383  -0.0993  0.1193  0.2500  -2.4528   0.0000   0.3219


