xflr5 v6.42

 Calculated polar for: CLARK_Y

 1 1 Reynolds number fixed          Mach number fixed         

 xtrf =   0.250 (top)        0.250 (bottom)
 Mach =   0.000     Re =     0.005 e 6     Ncrit =   5.000

  alpha     CL        CD       CDp       Cm    Top Xtr Bot Xtr   Cpmin    Chinge    XCp    
 ------- -------- --------- --------- -------- ------- ------- -------- --------- ---------
 -10.000  -0.3873   0.14816   0.12368  -0.0275  0.2500  0.2500  -1.6256   0.0000   0.1673
  -9.500  -0.3818   0.14175   0.11743  -0.0291  0.2500  0.2500  -1.6311   0.0000   0.1627
  -9.000  -0.3776   0.13538   0.11123  -0.0304  0.2500  0.2500  -1.6372   0.0000   0.1588
  -8.500  -0.3753   0.12910   0.10516  -0.0316  0.2500  0.2500  -1.6582   0.0000   0.1558
  -8.000  -0.3735   0.12275   0.09901  -0.0328  0.2500  0.2500  -1.6822   0.0000   0.1526
  -7.500  -0.3713   0.11626   0.09270  -0.0342  0.2500  0.2500  -1.7051   0.0000   0.1490
  -7.000  -0.3683   0.10970   0.08627  -0.0355  0.2500  0.2500  -1.7257   0.0000   0.1452
  -6.500  -0.3637   0.10308   0.07968  -0.0369  0.2500  0.2500  -1.7419   0.0000   0.1408
  -6.000  -0.3558   0.09641   0.07281  -0.0383  0.2500  0.2500  -1.7538   0.0000   0.1350
  -5.500  -0.3430   0.08980   0.06591  -0.0398  0.2500  0.2500  -1.7681   0.0000   0.1269
  -5.000  -0.3233   0.08335   0.05895  -0.0413  0.2500  0.2500  -1.7666   0.0000   0.1151
  -4.500  -0.2960   0.07723   0.05212  -0.0430  0.2500  0.2500  -1.7444   0.0000   0.0978
  -4.000  -0.2606   0.07169   0.04570  -0.0445  0.2500  0.2500  -1.7154   0.0000   0.0717
  -3.500  -0.2198   0.06704   0.04003  -0.0455  0.2500  0.2500  -1.6635   0.0000   0.0348
  -3.000  -0.1779   0.06362   0.03566  -0.0456  0.2500  0.2500  -1.5790   0.0000  -0.0152
  -2.500  -0.1368   0.06139   0.03242  -0.0450  0.2500  0.2500  -1.4676   0.0000  -0.0886
  -2.000  -0.0965   0.06006   0.02995  -0.0440  0.2500  0.2500  -1.3388   0.0000  -0.2172
  -1.500  -0.0570   0.05934   0.02824  -0.0428  0.2500  0.2500  -1.2158   0.0000  -0.5162
  -1.000  -0.0181   0.05904   0.02704  -0.0417  0.2500  0.2500  -1.0929   0.0000  -2.0898
  -0.500   0.0205   0.05908   0.02619  -0.0406  0.2500  0.2500  -0.9679   0.0000   2.2438
   0.000   0.0590   0.05944   0.02582  -0.0395  0.2500  0.2500  -0.8426   0.0000   0.9227
   0.500   0.0970   0.06009   0.02580  -0.0386  0.2500  0.2500  -0.7186   0.0000   0.6464
   1.000   0.1344   0.06099   0.02608  -0.0377  0.2500  0.2500  -0.5972   0.0000   0.5275
   1.500   0.1711   0.06215   0.02674  -0.0369  0.2500  0.2500  -0.5820   0.0000   0.4617
   2.000   0.2070   0.06355   0.02774  -0.0362  0.2500  0.2500  -0.6114   0.0000   0.4204
   2.500   0.2421   0.06520   0.02904  -0.0357  0.2500  0.2500  -0.6393   0.0000   0.3922
   3.000   0.2762   0.06709   0.03066  -0.0353  0.2500  0.2500  -0.6655   0.0000   0.3721
   3.500   0.3083   0.06923   0.03259  -0.0349  0.2500  0.2500  -0.6934   0.0000   0.3568
   4.500   0.3698   0.07419   0.03738  -0.0343  0.2500  0.2500  -0.7504   0.0000   0.3355
   5.000   0.3993   0.07702   0.04020  -0.0342  0.2500  0.2500  -0.7833   0.0000   0.3280
   5.500   0.4281   0.08008   0.04331  -0.0342  0.2500  0.2500  -0.8190   0.0000   0.3218
   6.000   0.4562   0.08335   0.04676  -0.0343  0.2500  0.2500  -0.8687   0.0000   0.3167
   6.500   0.4838   0.08681   0.05037  -0.0345  0.2500  0.2500  -0.9200   0.0000   0.3124
   7.000   0.5109   0.09046   0.05422  -0.0348  0.2500  0.2500  -0.9698   0.0000   0.3087
   7.500   0.5376   0.09428   0.05840  -0.0352  0.2500  0.2500  -1.0265   0.0000   0.3055
   8.000   0.5642   0.09831   0.06272  -0.0357  0.2500  0.2500  -1.0830   0.0000   0.3028
   8.500   0.5906   0.10253   0.06728  -0.0363  0.2500  0.2500  -1.1380   0.0000   0.3004
   9.000   0.6168   0.10692   0.07208  -0.0370  0.2500  0.2500  -1.1912   0.0000   0.2984
   9.500   0.6426   0.11147   0.07721  -0.0377  0.2500  0.2500  -1.2425   0.0000   0.2966
  10.000   0.6676   0.11623   0.08246  -0.0386  0.2500  0.2500  -1.2995   0.0000   0.2951
  10.500   0.6918   0.12129   0.08805  -0.0396  0.2500  0.2500  -1.3545   0.0000   0.2939
  11.000   0.7153   0.12671   0.09405  -0.0408  0.2500  0.2500  -1.4042   0.0000   0.2932
  11.500   0.7377   0.13256   0.10063  -0.0423  0.2500  0.2500  -1.4472   0.0000   0.2929
  12.000   0.7591   0.13888   0.10755  -0.0441  0.2500  0.2500  -1.5443   0.0000   0.2930
  12.500   0.7792   0.14570   0.11496  -0.0461  0.2500  0.2500  -1.6560   0.0000   0.2936
  13.000   0.7980   0.15301   0.12285  -0.0485  0.2500  0.2500  -1.7576   0.0000   0.2946
  13.500   0.8157   0.16078   0.13117  -0.0511  0.2500  0.2500  -1.8550   0.0000   0.2959
  14.000   0.8324   0.16899   0.14006  -0.0540  0.2500  0.2500  -1.9503   0.0000   0.2975
  14.500   0.8477   0.17757   0.14914  -0.0571  0.2500  0.2500  -2.0333   0.0000   0.2994
  15.000   0.8619   0.18638   0.15843  -0.0604  0.2500  0.2500  -2.1040   0.0000   0.3015
  15.500   0.8753   0.19532   0.16782  -0.0639  0.2500  0.2500  -2.1633   0.0000   0.3038
  16.000   0.8875   0.20424   0.17715  -0.0676  0.2500  0.2500  -2.2107   0.0000   0.3062
  16.500   0.8993   0.21313   0.18644  -0.0713  0.2500  0.2500  -2.2477   0.0000   0.3086
  17.000   0.9108   0.22201   0.19569  -0.0752  0.2500  0.2500  -2.2750   0.0000   0.3111
  17.500   0.9223   0.23089   0.20508  -0.0791  0.2500  0.2500  -2.2925   0.0000   0.3137
  18.000   0.9337   0.23974   0.21425  -0.0832  0.2500  0.2500  -2.3005   0.0000   0.3162
  18.500   0.9453   0.24854   0.22334  -0.0873  0.2500  0.2500  -2.3160   0.0000   0.3186
  19.000   0.9570   0.25729   0.23237  -0.0915  0.2500  0.2500  -2.3226   0.0000   0.3211
  19.500   0.9689   0.26599   0.24131  -0.0957  0.2500  0.2500  -2.3211   0.0000   0.3235
  20.000   0.9811   0.27471   0.25024  -0.1001  0.2500  0.2500  -2.3127   0.0000   0.3258


