xflr5 v6.42

 Calculated polar for: clarky

 1 1 Reynolds number fixed          Mach number fixed         

 xtrf =   0.250 (top)        0.250 (bottom)
 Mach =   0.000     Re =     0.015 e 6     Ncrit =   5.000

  alpha     CL        CD       CDp       Cm    Top Xtr Bot Xtr   Cpmin    Chinge    XCp    
 ------- -------- --------- --------- -------- ------- ------- -------- --------- ---------
 -10.000  -0.3705   0.13209   0.11644  -0.0340  0.2500  0.2000  -1.5789   0.0000   0.1467
  -9.500  -0.3592   0.12470   0.10907  -0.0361  0.2500  0.1988  -1.5659   0.0000   0.1384
  -9.000  -0.3535   0.11777   0.10221  -0.0385  0.2500  0.1986  -1.5746   0.0000   0.1306
  -8.500  -0.3458   0.11060   0.09511  -0.0407  0.2500  0.1969  -1.5889   0.0000   0.1223
  -8.000  -0.3393   0.10334   0.08791  -0.0432  0.2500  0.1924  -1.6098   0.0000   0.1131
  -7.500  -0.3363   0.09583   0.08047  -0.0469  0.2500  0.1879  -1.6535   0.0000   0.1016
  -7.000  -0.3347   0.08807   0.07272  -0.0512  0.2500  0.1845  -1.7099   0.0000   0.0888
  -6.500  -0.3283   0.08021   0.06472  -0.0552  0.2500  0.1828  -1.7530   0.0000   0.0741
  -6.000  -0.3124   0.07269   0.05690  -0.0582  0.2500  0.1834  -1.7533   0.0000   0.0562
  -5.500  -0.2877   0.06571   0.04938  -0.0605  0.2500  0.1867  -1.7518   0.0000   0.0319
  -5.000  -0.2591   0.05949   0.04241  -0.0626  0.2500  0.1981  -1.7354   0.0000   0.0008
  -4.500  -0.2223   0.05454   0.03689  -0.0628  0.2500  0.2168  -1.6600   0.0000  -0.0407
  -4.000  -0.1782   0.04982   0.03142  -0.0633  0.2500  0.2379  -1.5983   0.0000  -0.1144
  -3.500  -0.1238   0.04503   0.02578  -0.0641  0.2500  0.2500  -1.5574   0.0000  -0.2791
  -3.000  -0.0635   0.04060   0.02032  -0.0645  0.2500  0.2500  -1.5126   0.0000  -0.7864
  -2.500  -0.0133   0.03823   0.01730  -0.0631  0.2500  0.2500  -1.4045   0.0000  -4.5852
  -2.000   0.0339   0.03734   0.01567  -0.0615  0.2500  0.2500  -1.2511   0.0000   2.0862
  -1.500   0.0807   0.03696   0.01459  -0.0601  0.2500  0.2500  -1.0840   0.0000   1.0018
  -1.000   0.1271   0.03684   0.01390  -0.0587  0.2500  0.2500  -0.9350   0.0000   0.7145
  -0.500   0.1731   0.03689   0.01346  -0.0574  0.2500  0.2500  -0.7988   0.0000   0.5818
   0.000   0.2185   0.03707   0.01326  -0.0561  0.2500  0.2500  -0.6649   0.0000   0.5053
   0.500   0.2635   0.03739   0.01329  -0.0547  0.2500  0.2500  -0.6632   0.0000   0.4554
   1.000   0.3077   0.03784   0.01353  -0.0534  0.2500  0.2500  -0.7044   0.0000   0.4204
   1.500   0.3513   0.03840   0.01395  -0.0520  0.2500  0.2500  -0.7452   0.0000   0.3943
   2.000   0.3939   0.03909   0.01456  -0.0506  0.2500  0.2500  -0.7863   0.0000   0.3741
   2.500   0.4354   0.03990   0.01537  -0.0491  0.2500  0.2500  -0.8291   0.0000   0.3580
   3.000   0.4754   0.04084   0.01639  -0.0475  0.2500  0.2500  -0.8708   0.0000   0.3447
   3.500   0.5142   0.04194   0.01764  -0.0459  0.2500  0.2500  -0.9144   0.0000   0.3336
   4.000   0.5520   0.04321   0.01911  -0.0444  0.2500  0.2500  -0.9609   0.0000   0.3242
   4.500   0.5886   0.04468   0.02084  -0.0430  0.2500  0.2500  -1.0148   0.0000   0.3163
   5.000   0.6242   0.04639   0.02289  -0.0417  0.2500  0.2500  -1.0935   0.0000   0.3096
   5.500   0.6583   0.04836   0.02521  -0.0405  0.2500  0.2500  -1.1763   0.0000   0.3038
   6.000   0.6903   0.05063   0.02789  -0.0395  0.2500  0.2500  -1.2579   0.0000   0.2989
   6.500   0.7202   0.05325   0.03106  -0.0386  0.2500  0.2500  -1.3362   0.0000   0.2947
   7.000   0.7478   0.05626   0.03454  -0.0378  0.2500  0.2500  -1.4147   0.0000   0.2912
   7.500   0.7731   0.05970   0.03848  -0.0373  0.2500  0.2500  -1.4918   0.0000   0.2882
   8.000   0.7959   0.06358   0.04288  -0.0369  0.2500  0.2500  -1.5635   0.0000   0.2858
   8.500   0.8164   0.06797   0.04780  -0.0368  0.2500  0.2500  -1.6284   0.0000   0.2839
   9.000   0.8338   0.07308   0.05353  -0.0370  0.2500  0.2500  -1.6835   0.0000   0.2826
   9.500   0.8513   0.07835   0.05928  -0.0372  0.2500  0.2500  -1.7362   0.0000   0.2813
  10.000   0.8680   0.08392   0.06536  -0.0375  0.2500  0.2500  -1.8085   0.0000   0.2802
  10.500   0.8831   0.09011   0.07207  -0.0381  0.2500  0.2500  -1.9529   0.0000   0.2796
  11.000   0.8953   0.09729   0.07977  -0.0392  0.2500  0.2500  -2.0778   0.0000   0.2796
  11.500   0.9030   0.10587   0.08882  -0.0410  0.2500  0.2500  -2.1701   0.0000   0.2807
  12.000   0.9056   0.11591   0.09940  -0.0436  0.2500  0.2500  -2.2237   0.0000   0.2830
  12.500   0.9049   0.12692   0.11074  -0.0469  0.2500  0.2500  -2.2533   0.0000   0.2862
  13.000   0.9025   0.13836   0.12245  -0.0507  0.2500  0.2500  -2.2644   0.0000   0.2901
  13.500   0.9003   0.14965   0.13398  -0.0547  0.2500  0.2500  -2.2685   0.0000   0.2942
  14.000   0.8995   0.16049   0.14503  -0.0588  0.2500  0.2500  -2.2744   0.0000   0.2983
  14.500   0.9003   0.17080   0.15556  -0.0629  0.2500  0.2500  -2.2835   0.0000   0.3022
  15.000   0.9025   0.18061   0.16557  -0.0669  0.2500  0.2500  -2.2938   0.0000   0.3059
  15.500   0.9056   0.18986   0.17503  -0.0709  0.2500  0.2500  -2.3040   0.0000   0.3094
  16.000   0.9103   0.19886   0.18422  -0.0750  0.2500  0.2500  -2.3162   0.0000   0.3127
  16.500   0.9164   0.20772   0.19328  -0.0791  0.2500  0.2500  -2.3210   0.0000   0.3160
  17.000   0.9237   0.21653   0.20229  -0.0833  0.2500  0.2500  -2.3139   0.0000   0.3191
  17.500   0.9319   0.22537   0.21129  -0.0877  0.2500  0.2500  -2.2911   0.0000   0.3223
  18.000   0.9445   0.23222   0.21827  -0.0902  0.2287  0.2500  -2.3068   0.0000   0.3228
  18.500   0.9557   0.24107   0.22724  -0.0944  0.2259  0.2500  -2.2650   0.0000   0.3254
  19.000   0.9716   0.24729   0.23350  -0.0962  0.1963  0.2500  -2.2930   0.0000   0.3246
  19.500   0.9818   0.25544   0.24168  -0.1010  0.1948  0.2500  -2.2317   0.0000   0.3276
  20.000   0.9938   0.26360   0.25007  -0.1057  0.1941  0.2500  -2.1935   0.0000   0.3302


