xflr5 v6.42

 Calculated polar for: clarky

 1 1 Reynolds number fixed          Mach number fixed         

 xtrf =   0.250 (top)        0.250 (bottom)
 Mach =   0.000     Re =     3.000 e 6     Ncrit =   5.000

  alpha     CL        CD       CDp       Cm    Top Xtr Bot Xtr   Cpmin    Chinge    XCp    
 ------- -------- --------- --------- -------- ------- ------- -------- --------- ---------
 -10.000  -0.7403   0.01239   0.00629  -0.0808  0.2500  0.0184  -7.5337   0.0000   0.1291
  -9.500  -0.6861   0.01198   0.00582  -0.0806  0.2500  0.0188  -6.8561   0.0000   0.1212
  -9.000  -0.6312   0.01168   0.00547  -0.0804  0.2500  0.0191  -6.1974   0.0000   0.1115
  -8.500  -0.5753   0.01153   0.00530  -0.0804  0.2500  0.0195  -5.5556   0.0000   0.0994
  -8.000  -0.5209   0.01110   0.00477  -0.0802  0.2500  0.0195  -5.0467   0.0000   0.0854
  -7.500  -0.4658   0.01074   0.00436  -0.0800  0.2500  0.0196  -4.5837   0.0000   0.0676
  -7.000  -0.4099   0.01055   0.00413  -0.0800  0.2500  0.0198  -4.1280   0.0000   0.0442
  -6.500  -0.3552   0.01008   0.00357  -0.0797  0.2500  0.0198  -3.7956   0.0000   0.0146
  -6.000  -0.2999   0.00971   0.00311  -0.0796  0.2500  0.0199  -3.4908   0.0000  -0.0267
  -5.500  -0.2441   0.00940   0.00273  -0.0795  0.2500  0.0199  -3.1894   0.0000  -0.0877
  -5.000  -0.1881   0.00915   0.00243  -0.0794  0.2500  0.0200  -2.8935   0.0000  -0.1858
  -4.500  -0.1321   0.00888   0.00210  -0.0793  0.2500  0.0226  -2.6244   0.0000  -0.3672
  -4.000  -0.0756   0.00872   0.00194  -0.0793  0.2500  0.0255  -2.3371   0.0000  -0.8233
  -3.500  -0.0190   0.00859   0.00180  -0.0793  0.2500  0.0272  -2.0575   0.0000  -4.0025
  -3.000   0.0377   0.00848   0.00168  -0.0794  0.2500  0.0283  -1.7892   0.0000   2.3899
  -2.500   0.0945   0.00839   0.00158  -0.0795  0.2500  0.0289  -1.5327   0.0000   1.1014
  -2.000   0.1513   0.00831   0.00149  -0.0795  0.2500  0.0293  -1.2885   0.0000   0.7802
  -1.500   0.2081   0.00825   0.00142  -0.0796  0.2500  0.0296  -1.0563   0.0000   0.6344
  -1.000   0.2649   0.00820   0.00136  -0.0797  0.2500  0.0298  -0.8361   0.0000   0.5511
  -0.500   0.3217   0.00816   0.00133  -0.0798  0.2500  0.0300  -0.6864   0.0000   0.4973
   0.000   0.3785   0.00811   0.00132  -0.0799  0.2500  0.0366  -0.7394   0.0000   0.4595
   0.500   0.4347   0.00796   0.00131  -0.0800  0.2500  0.0794  -0.7925   0.0000   0.4317
   1.000   0.4911   0.00787   0.00133  -0.0801  0.2500  0.1160  -0.8464   0.0000   0.4103
   1.500   0.5470   0.00768   0.00138  -0.0801  0.2500  0.2074  -0.9004   0.0000   0.3932
   2.000   0.6034   0.00764   0.00145  -0.0803  0.2500  0.2500  -0.9585   0.0000   0.3793
   2.500   0.6602   0.00771   0.00153  -0.0804  0.2500  0.2500  -1.0183   0.0000   0.3676
   3.000   0.7168   0.00779   0.00162  -0.0805  0.2500  0.2500  -1.0785   0.0000   0.3577
   3.500   0.7733   0.00787   0.00173  -0.0807  0.2500  0.2500  -1.1633   0.0000   0.3492
   4.000   0.8289   0.00801   0.00187  -0.0807  0.2443  0.2500  -1.2843   0.0000   0.3417
   4.500   0.8832   0.00827   0.00206  -0.0805  0.2260  0.2500  -1.4142   0.0000   0.3350
   5.000   0.9362   0.00861   0.00231  -0.0801  0.2003  0.2500  -1.5511   0.0000   0.3289
   6.000   1.0311   0.01019   0.00334  -0.0776  0.0911  0.2500  -1.8336   0.0000   0.3175
   6.500   1.0823   0.01062   0.00372  -0.0769  0.0750  0.2500  -1.9955   0.0000   0.3127
   7.000   1.1321   0.01114   0.00415  -0.0761  0.0573  0.2500  -2.1593   0.0000   0.3083
   7.500   1.1790   0.01186   0.00474  -0.0748  0.0386  0.2500  -2.4775   0.0000   0.3039
   8.000   1.2233   0.01275   0.00551  -0.0731  0.0147  0.2500  -2.8371   0.0000   0.2995
   8.500   1.2716   0.01325   0.00603  -0.0721  0.0111  0.2500  -3.2330   0.0000   0.2957
   9.000   1.3178   0.01385   0.00665  -0.0707  0.0090  0.2500  -3.6638   0.0000   0.2920
   9.500   1.3637   0.01442   0.00724  -0.0693  0.0080  0.2500  -4.1134   0.0000   0.2885
  10.000   1.4082   0.01499   0.00787  -0.0678  0.0076  0.2500  -4.6043   0.0000   0.2850
  10.500   1.4494   0.01565   0.00856  -0.0657  0.0067  0.2500  -5.1240   0.0000   0.2814
  11.000   1.4843   0.01638   0.00932  -0.0624  0.0058  0.2500  -5.6297   0.0000   0.2774
  11.500   1.5197   0.01726   0.01023  -0.0596  0.0048  0.2500  -6.1556   0.0000   0.2737
  12.000   1.5524   0.01827   0.01131  -0.0565  0.0041  0.2500  -6.6785   0.0000   0.2700
  12.500   1.5844   0.01933   0.01245  -0.0535  0.0040  0.2500  -7.2221   0.0000   0.2665
  13.000   1.6144   0.02052   0.01371  -0.0505  0.0040  0.2500  -7.7709   0.0000   0.2631
  13.500   1.6424   0.02191   0.01517  -0.0476  0.0039  0.2500  -8.3222   0.0000   0.2599
  14.000   1.6680   0.02352   0.01686  -0.0447  0.0037  0.2500  -8.8720   0.0000   0.2567
  14.500   1.6907   0.02543   0.01885  -0.0418  0.0035  0.2500  -9.4136   0.0000   0.2537
  15.000   1.7106   0.02767   0.02118  -0.0391  0.0033  0.2500  -9.9470   0.0000   0.2508
  15.500   1.7274   0.03029   0.02388  -0.0366  0.0030  0.2500  -10.4665   0.0000   0.2480
  16.000   1.7405   0.03338   0.02707  -0.0343  0.0028  0.2500  -10.9652   0.0000   0.2454
  16.500   1.7496   0.03704   0.03083  -0.0323  0.0026  0.2500  -11.4356   0.0000   0.2431
  17.000   1.7552   0.04125   0.03517  -0.0306  0.0024  0.2500  -11.8780   0.0000   0.2409
  17.500   1.7571   0.04619   0.04025  -0.0296  0.0022  0.2500  -12.2866   0.0000   0.2391
  18.000   1.7536   0.05198   0.04619  -0.0290  0.0021  0.2500  -12.6458   0.0000   0.2376
  18.500   1.7484   0.05836   0.05272  -0.0292  0.0021  0.2500  -12.9944   0.0000   0.2364
  19.000   1.7382   0.06565   0.06016  -0.0299  0.0020  0.2500  -13.2910   0.0000   0.2356
  19.500   1.7224   0.07394   0.06864  -0.0313  0.0020  0.2500  -13.5239   0.0000   0.2353
  20.000   1.7014   0.08331   0.07819  -0.0335  0.0020  0.2500  -13.6924   0.0000   0.2355


