xflr5 v6.42

 Calculated polar for: clarky

 1 1 Reynolds number fixed          Mach number fixed         

 xtrf =   0.250 (top)        0.250 (bottom)
 Mach =   0.000     Re =     1.000 e 6     Ncrit =   5.000

  alpha     CL        CD       CDp       Cm    Top Xtr Bot Xtr   Cpmin    Chinge    XCp    
 ------- -------- --------- --------- -------- ------- ------- -------- --------- ---------
 -10.000  -0.6988   0.02154   0.01523  -0.0843  0.2500  0.0198  -6.9652   0.0000   0.1176
  -9.500  -0.6488   0.02076   0.01430  -0.0839  0.2500  0.0200  -6.3438   0.0000   0.1093
  -9.000  -0.6014   0.01931   0.01262  -0.0832  0.2500  0.0202  -5.7856   0.0000   0.1006
  -8.500  -0.5573   0.01693   0.00987  -0.0821  0.2500  0.0208  -5.3047   0.0000   0.0917
  -8.000  -0.5082   0.01555   0.00825  -0.0814  0.2500  0.0215  -4.8683   0.0000   0.0791
  -7.500  -0.4566   0.01465   0.00719  -0.0809  0.2500  0.0223  -4.4450   0.0000   0.0622
  -7.000  -0.4040   0.01392   0.00633  -0.0804  0.2500  0.0228  -4.0297   0.0000   0.0402
  -6.500  -0.3511   0.01320   0.00548  -0.0800  0.2500  0.0232  -3.6576   0.0000   0.0113
  -6.000  -0.2975   0.01259   0.00473  -0.0796  0.2500  0.0237  -3.3502   0.0000  -0.0288
  -5.500  -0.2433   0.01210   0.00414  -0.0793  0.2500  0.0247  -3.0788   0.0000  -0.0879
  -5.000  -0.1886   0.01171   0.00368  -0.0790  0.2500  0.0263  -2.8084   0.0000  -0.1825
  -4.500  -0.1334   0.01143   0.00331  -0.0788  0.2500  0.0281  -2.5343   0.0000  -0.3572
  -4.000  -0.0780   0.01121   0.00304  -0.0787  0.2500  0.0292  -2.2591   0.0000  -0.7833
  -3.500  -0.0223   0.01103   0.00282  -0.0786  0.2500  0.0298  -1.9911   0.0000  -3.3357
  -3.000   0.0333   0.01085   0.00259  -0.0784  0.2500  0.0300  -1.7345   0.0000   2.6429
  -2.500   0.0888   0.01060   0.00229  -0.0783  0.2500  0.0313  -1.5005   0.0000   1.1427
  -2.000   0.1445   0.01043   0.00207  -0.0781  0.2500  0.0326  -1.2721   0.0000   0.7955
  -1.500   0.2003   0.01030   0.00192  -0.0780  0.2500  0.0347  -1.0517   0.0000   0.6415
  -1.000   0.2561   0.01020   0.00182  -0.0779  0.2500  0.0387  -0.8403   0.0000   0.5546
  -0.500   0.3113   0.00996   0.00176  -0.0778  0.2500  0.0841  -0.6806   0.0000   0.4992
   0.000   0.3665   0.00976   0.00174  -0.0777  0.2500  0.1420  -0.7324   0.0000   0.4605
   0.500   0.4214   0.00952   0.00177  -0.0777  0.2500  0.2311  -0.7847   0.0000   0.4321
   1.000   0.4773   0.00954   0.00182  -0.0776  0.2500  0.2500  -0.8381   0.0000   0.4099
   1.500   0.5334   0.00962   0.00189  -0.0776  0.2500  0.2500  -0.8922   0.0000   0.3922
   2.000   0.5893   0.00971   0.00198  -0.0776  0.2500  0.2500  -0.9492   0.0000   0.3779
   2.500   0.6450   0.00981   0.00210  -0.0775  0.2500  0.2500  -1.0080   0.0000   0.3660
   3.000   0.7005   0.00992   0.00223  -0.0775  0.2500  0.2500  -1.0673   0.0000   0.3559
   3.500   0.7559   0.01004   0.00240  -0.0774  0.2500  0.2500  -1.1429   0.0000   0.3472
   4.000   0.8110   0.01017   0.00257  -0.0773  0.2500  0.2500  -1.2628   0.0000   0.3396
   4.500   0.8658   0.01032   0.00277  -0.0771  0.2500  0.2500  -1.3909   0.0000   0.3329
   5.000   0.9204   0.01047   0.00301  -0.0769  0.2500  0.2500  -1.5293   0.0000   0.3269
   5.500   0.9746   0.01064   0.00326  -0.0767  0.2500  0.2500  -1.6708   0.0000   0.3215
   6.000   1.0264   0.01099   0.00358  -0.0762  0.2330  0.2500  -1.8218   0.0000   0.3164
   6.500   1.0698   0.01199   0.00424  -0.0744  0.1647  0.2500  -1.9694   0.0000   0.3111
   7.000   1.1132   0.01295   0.00496  -0.0726  0.1175  0.2500  -2.1199   0.0000   0.3062
   7.500   1.1576   0.01379   0.00566  -0.0709  0.0883  0.2500  -2.3909   0.0000   0.3017
   8.000   1.2029   0.01448   0.00633  -0.0694  0.0708  0.2500  -2.7512   0.0000   0.2975
   8.500   1.2450   0.01535   0.00711  -0.0675  0.0521  0.2500  -3.1155   0.0000   0.2933
   9.000   1.2772   0.01683   0.00836  -0.0640  0.0186  0.2500  -3.4724   0.0000   0.2885
   9.500   1.3129   0.01766   0.00923  -0.0609  0.0130  0.2500  -3.8583   0.0000   0.2841
  10.000   1.3500   0.01851   0.01018  -0.0583  0.0114  0.2500  -4.2704   0.0000   0.2801
  10.500   1.3845   0.01954   0.01134  -0.0554  0.0102  0.2500  -4.7120   0.0000   0.2761
  11.000   1.4147   0.02084   0.01274  -0.0521  0.0091  0.2500  -5.1638   0.0000   0.2722
  11.500   1.4418   0.02236   0.01438  -0.0487  0.0080  0.2500  -5.6070   0.0000   0.2683
  12.000   1.4706   0.02381   0.01594  -0.0459  0.0077  0.2500  -6.0868   0.0000   0.2649
  12.500   1.4963   0.02552   0.01778  -0.0430  0.0073  0.2500  -6.5612   0.0000   0.2615
  13.000   1.5190   0.02756   0.01996  -0.0402  0.0067  0.2500  -7.0292   0.0000   0.2583
  13.500   1.5385   0.02997   0.02250  -0.0376  0.0062  0.2500  -7.4866   0.0000   0.2553
  14.000   1.5541   0.03286   0.02553  -0.0351  0.0058  0.2500  -7.9248   0.0000   0.2525
  14.500   1.5660   0.03626   0.02908  -0.0329  0.0054  0.2500  -8.3446   0.0000   0.2499
  15.000   1.5730   0.04034   0.03332  -0.0311  0.0050  0.2500  -8.7302   0.0000   0.2476
  15.500   1.5739   0.04534   0.03852  -0.0297  0.0047  0.2500  -9.0657   0.0000   0.2456
  16.000   1.5667   0.05164   0.04506  -0.0290  0.0044  0.2500  -9.3274   0.0000   0.2441
  16.500   1.5501   0.05965   0.05332  -0.0293  0.0041  0.2500  -9.4974   0.0000   0.2433
  17.000   1.5377   0.06764   0.06153  -0.0305  0.0040  0.2500  -9.7105   0.0000   0.2431
  17.500   1.5230   0.07632   0.07042  -0.0323  0.0040  0.2500  -9.8996   0.0000   0.2433
  18.000   1.5036   0.08609   0.08041  -0.0350  0.0040  0.2500  -10.0321   0.0000   0.2441
  18.500   1.4784   0.09704   0.09159  -0.0385  0.0039  0.2500  -10.0922   0.0000   0.2457
  19.000   1.4507   0.10882   0.10359  -0.0427  0.0039  0.2500  -10.1039   0.0000   0.2479
  19.500   1.4214   0.12102   0.11601  -0.0475  0.0039  0.2500  -10.0748   0.0000   0.2508
  20.000   1.3946   0.13312   0.12832  -0.0528  0.0038  0.2500  -10.0429   0.0000   0.2540


