xflr5 v6.42

 Calculated polar for: CLARK_Y

 1 1 Reynolds number fixed          Mach number fixed         

 xtrf =   0.250 (top)        0.250 (bottom)
 Mach =   0.000     Re =     0.040 e 6     Ncrit =   5.000

  alpha     CL        CD       CDp       Cm    Top Xtr Bot Xtr   Cpmin    Chinge    XCp    
 ------- -------- --------- --------- -------- ------- ------- -------- --------- ---------
  -9.500  -0.3700   0.10928   0.09826  -0.0475  0.2500  0.0983  -1.9362   0.0000   0.1104
  -9.000  -0.3511   0.10122   0.09015  -0.0476  0.2500  0.0952  -1.8769   0.0000   0.1033
  -8.500  -0.3450   0.09326   0.08224  -0.0506  0.2500  0.0923  -1.9057   0.0000   0.0926
  -8.000  -0.3472   0.08484   0.07389  -0.0556  0.2500  0.0898  -1.9848   0.0000   0.0802
  -7.500  -0.3480   0.07500   0.06402  -0.0627  0.2500  0.0876  -2.0999   0.0000   0.0607
  -7.000  -0.3446   0.06503   0.05381  -0.0686  0.2500  0.0861  -2.2056   0.0000   0.0424
  -6.500  -0.3292   0.05693   0.04524  -0.0717  0.2500  0.0889  -2.2290   0.0000   0.0236
  -6.000  -0.3035   0.04970   0.03727  -0.0735  0.2500  0.0930  -2.2182   0.0000  -0.0008
  -5.500  -0.2679   0.04340   0.03001  -0.0739  0.2500  0.0946  -2.1609   0.0000  -0.0351
  -5.000  -0.2242   0.03849   0.02412  -0.0736  0.2500  0.0971  -2.0777   0.0000  -0.0881
  -4.500  -0.1764   0.03465   0.01963  -0.0729  0.2500  0.1015  -1.9507   0.0000  -0.1745
  -4.000  -0.1270   0.03230   0.01692  -0.0721  0.2500  0.1144  -1.7963   0.0000  -0.3312
  -3.500  -0.0734   0.02995   0.01416  -0.0714  0.2500  0.1293  -1.6718   0.0000  -0.7441
  -3.000  -0.0213   0.02802   0.01201  -0.0705  0.2500  0.1560  -1.5430   0.0000  -3.1136
  -2.500   0.0274   0.02644   0.01073  -0.0696  0.2500  0.2397  -1.3923   0.0000   2.8270
  -2.000   0.0790   0.02541   0.00916  -0.0682  0.2500  0.2500  -1.2422   0.0000   1.1219
  -1.500   0.1305   0.02523   0.00842  -0.0672  0.2500  0.2500  -1.0809   0.0000   0.7683
  -1.000   0.1817   0.02520   0.00798  -0.0663  0.2500  0.2500  -0.9186   0.0000   0.6156
  -0.500   0.2326   0.02527   0.00772  -0.0654  0.2500  0.2500  -0.7579   0.0000   0.5304
   0.000   0.2832   0.02541   0.00759  -0.0645  0.2500  0.2500  -0.6730   0.0000   0.4761
   0.500   0.3335   0.02561   0.00760  -0.0636  0.2500  0.2500  -0.7189   0.0000   0.4383
   1.000   0.3834   0.02588   0.00773  -0.0626  0.2500  0.2500  -0.7651   0.0000   0.4104
   1.500   0.4327   0.02621   0.00797  -0.0617  0.2500  0.2500  -0.8149   0.0000   0.3890
   2.000   0.4815   0.02659   0.00832  -0.0606  0.2500  0.2500  -0.8647   0.0000   0.3719
   2.500   0.5298   0.02703   0.00878  -0.0596  0.2500  0.2500  -0.9145   0.0000   0.3579
   3.000   0.5778   0.02754   0.00934  -0.0585  0.2500  0.2500  -0.9650   0.0000   0.3463
   3.500   0.6250   0.02811   0.01005  -0.0574  0.2500  0.2500  -1.0193   0.0000   0.3363
   4.000   0.6715   0.02875   0.01083  -0.0562  0.2500  0.2500  -1.0850   0.0000   0.3277
   4.500   0.7172   0.02945   0.01173  -0.0549  0.2500  0.2500  -1.1882   0.0000   0.3201
   5.000   0.7619   0.03023   0.01278  -0.0535  0.2500  0.2500  -1.2965   0.0000   0.3133
   5.500   0.8056   0.03110   0.01393  -0.0521  0.2500  0.2500  -1.4054   0.0000   0.3072
   6.000   0.8481   0.03206   0.01525  -0.0506  0.2500  0.2500  -1.5146   0.0000   0.3016
   6.500   0.8890   0.03311   0.01667  -0.0488  0.2500  0.2500  -1.6296   0.0000   0.2964
   7.000   0.9278   0.03428   0.01823  -0.0469  0.2500  0.2500  -1.7498   0.0000   0.2914
   7.500   0.9658   0.03559   0.02003  -0.0450  0.2500  0.2500  -1.8699   0.0000   0.2868
   8.000   1.0031   0.03706   0.02198  -0.0431  0.2500  0.2500  -1.9895   0.0000   0.2826
   8.500   1.0392   0.03870   0.02414  -0.0413  0.2500  0.2500  -2.2185   0.0000   0.2787
   9.000   1.0740   0.04053   0.02660  -0.0394  0.2500  0.2500  -2.4980   0.0000   0.2750
   9.500   1.1080   0.04258   0.02924  -0.0376  0.2500  0.2500  -2.7814   0.0000   0.2716
  10.000   1.1416   0.04486   0.03217  -0.0358  0.2500  0.2500  -3.0687   0.0000   0.2683
  10.500   1.1768   0.04746   0.03544  -0.0341  0.2500  0.2500  -3.3638   0.0000   0.2652
  11.000   1.2237   0.05070   0.03951  -0.0331  0.2500  0.2500  -3.7318   0.0000   0.2626
  11.500   1.2509   0.05391   0.04298  -0.0305  0.2322  0.2500  -4.0413   0.0000   0.2592
  12.000   1.2416   0.05974   0.04932  -0.0274  0.2144  0.2500  -4.1713   0.0000   0.2561
  12.500   1.2296   0.06638   0.05633  -0.0254  0.1992  0.2500  -4.2819   0.0000   0.2538
  13.000   1.2394   0.07065   0.06075  -0.0234  0.1848  0.2500  -4.5165   0.0000   0.2512
  13.500   1.1677   0.08732   0.07796  -0.0271  0.1779  0.2500  -4.2322   0.0000   0.2547
  14.000   1.0823   0.11009   0.10082  -0.0362  0.1700  0.2500  -3.7862   0.0000   0.2644
  15.000   1.1111   0.11723   0.10836  -0.0347  0.1425  0.2500  -4.2717   0.0000   0.2601
  15.500   1.0106   0.15126   0.14220  -0.0520  0.1413  0.2500  -3.4602   0.0000   0.2806
  16.000   0.9729   0.16995   0.16082  -0.0620  0.1314  0.2500  -3.1247   0.0000   0.2926
  16.500   1.0041   0.16656   0.15774  -0.0591  0.1030  0.2500  -3.5471   0.0000   0.2862
  17.000   0.9824   0.18223   0.17333  -0.0673  0.0902  0.2500  -3.2720   0.0000   0.2954
  17.500   0.9887   0.18955   0.18070  -0.0703  0.0772  0.2500  -3.2957   0.0000   0.2971
  18.000   0.9784   0.20468   0.19575  -0.0781  0.0706  0.2500  -3.0107   0.0000   0.3054
  18.500   0.9987   0.20763   0.19880  -0.0785  0.0624  0.2500  -3.2181   0.0000   0.3029
  19.000   0.9905   0.22356   0.21464  -0.0875  0.0585  0.2500  -2.8824   0.0000   0.3123
  19.500   0.9945   0.23499   0.22605  -0.0937  0.0559  0.2500  -2.7194   0.0000   0.3175
  20.000   1.0021   0.24526   0.23633  -0.0992  0.0547  0.2500  -2.5958   0.0000   0.3215


