xflr5 v6.42

 Calculated polar for: FX_60-126

 1 1 Reynolds number fixed          Mach number fixed         

 xtrf =   0.250 (top)        0.250 (bottom)
 Mach =   0.000     Re =     0.300 e 6     Ncrit =   5.000

  alpha     CL        CD       CDp       Cm    Top Xtr Bot Xtr   Cpmin    Chinge    XCp    
 ------- -------- --------- --------- -------- ------- ------- -------- --------- ---------
 -10.000  -0.0237   0.02649   0.02125  -0.0841  0.2500  0.0146  -2.0146   0.0000  -3.3326
  -9.500  -0.0637   0.01861   0.01328  -0.0917  0.2500  0.0148  -2.4077   0.0000  -1.2085
  -9.000  -0.1065   0.01287   0.00739  -0.0968  0.2500  0.0150  -2.6807   0.0000  -0.6724
  -8.500  -0.1503   0.00863   0.00307  -0.0984  0.2500  0.0157  -2.8267   0.0000  -0.4150
  -8.000  -0.1745   0.00624   0.00068  -0.0974  0.2500  0.0167  -2.7469   0.0000  -0.3174
  -7.000  -0.2667   0.03021   0.02249  -0.1147  0.2500  0.0163  -3.4395   0.0000  -0.1944
  -6.500  -0.2117   0.02549   0.01710  -0.1166  0.2500  0.0122  -3.4201   0.0000  -0.3171
  -6.000  -0.1532   0.02260   0.01343  -0.1177  0.2500  0.0104  -3.3262   0.0000  -0.5393
  -5.500  -0.0960   0.02108   0.01163  -0.1184  0.2500  0.0099  -2.9809   0.0000  -1.0125
  -5.000  -0.0393   0.01881   0.00923  -0.1191  0.2500  0.0095  -2.6951   0.0000  -2.8445
  -4.500   0.0194   0.01722   0.00750  -0.1202  0.2500  0.0092  -2.3808   0.0000   6.5588
  -4.000   0.0798   0.01600   0.00615  -0.1216  0.2500  0.0089  -2.0574   0.0000   1.7955
  -3.500   0.1410   0.01508   0.00507  -0.1230  0.2500  0.0087  -1.7314   0.0000   1.1329
  -3.000   0.2016   0.01448   0.00425  -0.1240  0.2500  0.0086  -1.4093   0.0000   0.8712
  -2.500   0.2614   0.01409   0.00367  -0.1247  0.2500  0.0086  -1.0957   0.0000   0.7306
  -2.000   0.3206   0.01383   0.00325  -0.1253  0.2500  0.0088  -0.7941   0.0000   0.6425
  -1.500   0.3794   0.01367   0.00298  -0.1257  0.2500  0.0096  -0.6668   0.0000   0.5820
  -1.000   0.4381   0.01351   0.00279  -0.1262  0.2500  0.0463  -0.7119   0.0000   0.5378
  -0.500   0.4997   0.01278   0.00265  -0.1280  0.2500  0.2500  -0.7588   0.0000   0.5052
   0.000   0.5567   0.01290   0.00271  -0.1281  0.2500  0.2500  -0.8040   0.0000   0.4784
   0.500   0.6135   0.01302   0.00280  -0.1281  0.2500  0.2500  -0.8552   0.0000   0.4566
   1.000   0.6699   0.01317   0.00294  -0.1281  0.2500  0.2500  -0.9158   0.0000   0.4384
   1.500   0.7261   0.01333   0.00314  -0.1281  0.2500  0.2500  -0.9830   0.0000   0.4230
   2.000   0.7820   0.01351   0.00335  -0.1280  0.2500  0.2500  -1.0640   0.0000   0.4098
   2.500   0.8376   0.01370   0.00360  -0.1279  0.2500  0.2500  -1.1655   0.0000   0.3982
   3.000   0.8929   0.01391   0.00390  -0.1277  0.2500  0.2500  -1.2747   0.0000   0.3880
   3.500   0.9478   0.01415   0.00423  -0.1275  0.2500  0.2500  -1.3875   0.0000   0.3790
   4.000   1.0022   0.01440   0.00459  -0.1272  0.2500  0.2500  -1.5161   0.0000   0.3708
   4.500   1.0563   0.01467   0.00504  -0.1268  0.2500  0.2500  -1.6697   0.0000   0.3634
   5.000   1.1098   0.01497   0.00552  -0.1264  0.2500  0.2500  -1.8753   0.0000   0.3566
   5.500   1.1628   0.01530   0.00603  -0.1258  0.2500  0.2500  -2.0864   0.0000   0.3503
   6.000   1.2083   0.01626   0.00685  -0.1243  0.2075  0.2500  -2.2886   0.0000   0.3443
   6.500   1.2454   0.01792   0.00807  -0.1217  0.1330  0.2500  -2.4786   0.0000   0.3385
   7.000   1.2888   0.01891   0.00903  -0.1199  0.1096  0.2500  -2.6867   0.0000   0.3332
   7.500   1.3302   0.01996   0.01009  -0.1178  0.0904  0.2500  -2.8955   0.0000   0.3280
   8.000   1.3690   0.02110   0.01123  -0.1153  0.0724  0.2500  -3.1029   0.0000   0.3230
   8.500   1.4006   0.02263   0.01265  -0.1119  0.0488  0.2500  -3.2991   0.0000   0.3179
   9.000   1.4259   0.02413   0.01418  -0.1074  0.0330  0.2500  -3.4848   0.0000   0.3126
   9.500   1.4522   0.02565   0.01578  -0.1032  0.0289  0.2500  -3.7167   0.0000   0.3076
  10.000   1.4777   0.02734   0.01761  -0.0995  0.0259  0.2500  -4.1641   0.0000   0.3030
  10.500   1.5023   0.02918   0.01965  -0.0960  0.0238  0.2500  -4.6208   0.0000   0.2987
  11.000   1.5256   0.03126   0.02194  -0.0929  0.0228  0.2500  -5.0827   0.0000   0.2948
  11.500   1.5470   0.03363   0.02459  -0.0900  0.0221  0.2500  -5.5416   0.0000   0.2912
  12.500   1.5510   0.04254   0.03377  -0.0836  0.0035  0.2500  -6.2084   0.0000   0.2851
  13.000   1.5522   0.04756   0.03907  -0.0814  0.0030  0.2500  -6.5342   0.0000   0.2827
  13.500   1.5513   0.05310   0.04490  -0.0799  0.0028  0.2500  -6.8358   0.0000   0.2807
  14.000   1.5460   0.05945   0.05156  -0.0790  0.0026  0.2500  -7.0919   0.0000   0.2792
  14.500   1.5374   0.06672   0.05916  -0.0790  0.0024  0.2500  -7.3038   0.0000   0.2784
  15.000   1.5245   0.07501   0.06782  -0.0798  0.0023  0.2500  -7.4629   0.0000   0.2783
  15.500   1.5081   0.08431   0.07746  -0.0815  0.0022  0.2500  -7.5885   0.0000   0.2789
  16.000   1.4895   0.09445   0.08792  -0.0841  0.0021  0.2500  -7.7042   0.0000   0.2803
  16.500   1.4671   0.10559   0.09940  -0.0877  0.0021  0.2500  -7.7699   0.0000   0.2826
  17.000   1.4416   0.11770   0.11183  -0.0923  0.0021  0.2500  -7.7853   0.0000   0.2857
  17.500   1.4144   0.13077   0.12522  -0.0980  0.0021  0.2500  -7.7524   0.0000   0.2900
  18.000   1.3850   0.14489   0.13965  -0.1049  0.0021  0.2500  -7.6580   0.0000   0.2955
  18.500   1.3540   0.15997   0.15502  -0.1129  0.0021  0.2500  -7.4958   0.0000   0.3023
  19.000   1.3226   0.17621   0.17155  -0.1221  0.0021  0.2500  -7.2582   0.0000   0.3105
  19.500   1.2917   0.19368   0.18928  -0.1324  0.0021  0.2500  -6.9345   0.0000   0.3201
  20.000   1.2650   0.21146   0.20727  -0.1432  0.0021  0.2500  -6.5648   0.0000   0.3304


