xflr5 v6.42

 Calculated polar for: FX_63-137

 1 1 Reynolds number fixed          Mach number fixed         

 xtrf =   0.250 (top)        0.250 (bottom)
 Mach =   0.000     Re =     0.400 e 6     Ncrit =   5.000

  alpha     CL        CD       CDp       Cm    Top Xtr Bot Xtr   Cpmin    Chinge    XCp    
 ------- -------- --------- --------- -------- ------- ------- -------- --------- ---------
 -10.000  -0.1034   0.08887   0.08272  -0.0988  0.2500  0.0120  -2.5883   0.0000  -0.7757
  -9.500  -0.2477   0.04568   0.03954  -0.1281  0.2500  0.0121  -5.6107   0.0000  -0.2990
  -9.000  -0.2286   0.03080   0.02382  -0.1573  0.2500  0.0123  -5.9205   0.0000  -0.4696
  -8.500  -0.1697   0.02493   0.01724  -0.1683  0.2500  0.0130  -5.6580   0.0000  -0.7810
  -8.000  -0.1088   0.02266   0.01463  -0.1726  0.2500  0.0136  -5.1825   0.0000  -1.3947
  -7.500  -0.0466   0.02079   0.01244  -0.1762  0.2500  0.0143  -4.7176   0.0000  -3.6550
  -7.000   0.0158   0.01936   0.01073  -0.1790  0.2500  0.0154  -4.2510   0.0000  11.8937
  -6.500   0.0785   0.01817   0.00928  -0.1814  0.2500  0.0166  -3.8009   0.0000   2.6235
  -6.000   0.1424   0.01703   0.00792  -0.1839  0.2500  0.0172  -3.3767   0.0000   1.5735
  -5.500   0.2099   0.01581   0.00656  -0.1874  0.2500  0.0189  -2.9504   0.0000   1.1628
  -5.000   0.2746   0.01518   0.00581  -0.1898  0.2500  0.0210  -2.5327   0.0000   0.9550
  -4.500   0.3393   0.01466   0.00515  -0.1921  0.2500  0.0235  -2.2079   0.0000   0.8260
  -4.000   0.4032   0.01426   0.00466  -0.1941  0.2500  0.0292  -1.8811   0.0000   0.7387
  -3.500   0.4673   0.01389   0.00428  -0.1961  0.2500  0.0436  -1.5697   0.0000   0.6751
  -3.000   0.5317   0.01353   0.00404  -0.1984  0.2500  0.0931  -1.2607   0.0000   0.6269
  -2.500   0.6004   0.01293   0.00387  -0.2020  0.2500  0.2500  -0.9517   0.0000   0.5889
  -2.000   0.6579   0.01305   0.00383  -0.2022  0.2500  0.2500  -0.8739   0.0000   0.5588
  -1.500   0.7151   0.01319   0.00385  -0.2023  0.2500  0.2500  -0.9202   0.0000   0.5335
  -1.000   0.7717   0.01334   0.00391  -0.2024  0.2500  0.2500  -0.9687   0.0000   0.5119
  -0.500   0.8280   0.01351   0.00402  -0.2024  0.2500  0.2500  -1.0191   0.0000   0.4933
   0.000   0.8837   0.01371   0.00416  -0.2023  0.2500  0.2500  -1.0696   0.0000   0.4771
   0.500   0.9389   0.01391   0.00433  -0.2022  0.2500  0.2500  -1.1203   0.0000   0.4627
   1.000   0.9937   0.01413   0.00454  -0.2019  0.2500  0.2500  -1.1711   0.0000   0.4499
   1.500   1.0478   0.01437   0.00478  -0.2016  0.2500  0.2500  -1.2272   0.0000   0.4383
   2.000   1.1013   0.01462   0.00507  -0.2011  0.2500  0.2500  -1.2864   0.0000   0.4279
   2.500   1.1542   0.01490   0.00537  -0.2006  0.2500  0.2500  -1.3520   0.0000   0.4183
   3.000   1.2063   0.01519   0.00572  -0.1999  0.2500  0.2500  -1.4206   0.0000   0.4096
   3.500   1.2575   0.01551   0.00611  -0.1991  0.2500  0.2500  -1.5323   0.0000   0.4014
   4.000   1.3079   0.01584   0.00653  -0.1981  0.2500  0.2500  -1.6615   0.0000   0.3939
   4.500   1.3571   0.01620   0.00698  -0.1970  0.2500  0.2500  -1.8063   0.0000   0.3868
   5.000   1.4052   0.01659   0.00749  -0.1956  0.2500  0.2500  -1.9528   0.0000   0.3801
   5.500   1.4517   0.01701   0.00803  -0.1940  0.2500  0.2500  -2.1003   0.0000   0.3737
   6.000   1.4948   0.01746   0.00865  -0.1917  0.2500  0.2500  -2.2456   0.0000   0.3675
   6.500   1.5345   0.01796   0.00930  -0.1887  0.2500  0.2500  -2.3928   0.0000   0.3615
   7.000   1.5761   0.01853   0.01004  -0.1863  0.2500  0.2500  -2.5564   0.0000   0.3559
   7.500   1.6146   0.01927   0.01095  -0.1834  0.2450  0.2500  -2.7179   0.0000   0.3504
   8.000   1.6396   0.02077   0.01238  -0.1785  0.2138  0.2500  -2.8575   0.0000   0.3449
   8.500   1.6579   0.02271   0.01419  -0.1730  0.1797  0.2500  -2.9863   0.0000   0.3395
   9.000   1.6720   0.02506   0.01645  -0.1673  0.1457  0.2500  -3.1077   0.0000   0.3343
   9.500   1.6854   0.02766   0.01898  -0.1620  0.1204  0.2500  -3.2287   0.0000   0.3295
  10.000   1.7011   0.03031   0.02166  -0.1576  0.1053  0.2500  -3.3674   0.0000   0.3250
  10.500   1.7158   0.03321   0.02465  -0.1535  0.0952  0.2500  -3.5046   0.0000   0.3209
  11.000   1.7309   0.03624   0.02782  -0.1498  0.0882  0.2500  -3.6427   0.0000   0.3170
  11.500   1.7457   0.03944   0.03118  -0.1466  0.0838  0.2500  -3.7816   0.0000   0.3133
  12.000   1.7557   0.04323   0.03510  -0.1433  0.0791  0.2500  -3.9097   0.0000   0.3099
  12.500   1.7600   0.04773   0.03973  -0.1401  0.0739  0.2500  -4.0226   0.0000   0.3068
  13.000   1.7673   0.05215   0.04437  -0.1374  0.0713  0.2500  -4.1525   0.0000   0.3039
  13.500   1.7765   0.05653   0.04897  -0.1352  0.0696  0.2500  -4.3830   0.0000   0.3011
  14.000   1.7828   0.06138   0.05404  -0.1333  0.0675  0.2500  -4.6426   0.0000   0.2986
  14.500   1.7857   0.06671   0.05958  -0.1315  0.0654  0.2500  -4.8908   0.0000   0.2963
  15.000   1.7854   0.07260   0.06567  -0.1301  0.0632  0.2500  -5.1262   0.0000   0.2944
  15.500   1.7814   0.07917   0.07241  -0.1291  0.0607  0.2500  -5.3449   0.0000   0.2927
  16.000   1.7721   0.08654   0.07996  -0.1284  0.0577  0.2500  -5.5415   0.0000   0.2915
  16.500   1.7713   0.09291   0.08655  -0.1281  0.0562  0.2500  -5.8054   0.0000   0.2901
  17.000   1.7731   0.09896   0.09283  -0.1282  0.0543  0.2500  -6.0903   0.0000   0.2888
  17.500   1.7726   0.10541   0.09949  -0.1286  0.0516  0.2500  -6.3646   0.0000   0.2877
  18.000   1.7676   0.11265   0.10688  -0.1296  0.0486  0.2500  -6.6097   0.0000   0.2872
  18.500   1.7566   0.12090   0.11529  -0.1313  0.0457  0.2500  -6.8109   0.0000   0.2873
  19.000   1.7509   0.12835   0.12294  -0.1331  0.0437  0.2500  -7.0439   0.0000   0.2872
  19.500   1.7488   0.13531   0.13014  -0.1351  0.0418  0.2500  -7.3018   0.0000   0.2870
  20.000   1.7437   0.14275   0.13779  -0.1377  0.0396  0.2500  -7.5342   0.0000   0.2873


