xflr5 v6.42

 Calculated polar for: FX_63-137

 1 1 Reynolds number fixed          Mach number fixed         

 xtrf =   0.250 (top)        0.250 (bottom)
 Mach =   0.000     Re =     0.025 e 6     Ncrit =   5.000

  alpha     CL        CD       CDp       Cm    Top Xtr Bot Xtr   Cpmin    Chinge    XCp    
 ------- -------- --------- --------- -------- ------- ------- -------- --------- ---------
 -10.000  -0.1310   0.12978   0.11602  -0.0647  0.2500  0.2442  -1.1850   0.0000  -0.2912
  -9.500  -0.1289   0.12051   0.10670  -0.0724  0.2500  0.1413  -1.3928   0.0000  -0.3572
  -9.000  -0.1246   0.11366   0.09993  -0.0758  0.2500  0.1205  -1.5059   0.0000  -0.4026
  -8.500  -0.1176   0.10702   0.09342  -0.0777  0.2500  0.1124  -1.5728   0.0000  -0.4547
  -8.000  -0.1390   0.10070   0.08738  -0.0830  0.2500  0.1032  -1.8186   0.0000  -0.3819
  -7.500  -0.1269   0.09417   0.08096  -0.0829  0.2500  0.1013  -1.8231   0.0000  -0.4397
  -7.000  -0.1203   0.08752   0.07445  -0.0849  0.2500  0.0997  -1.8739   0.0000  -0.4909
  -6.500  -0.1145   0.07997   0.06705  -0.0894  0.2500  0.0984  -1.9595   0.0000  -0.5647
  -6.000  -0.1050   0.07084   0.05793  -0.0982  0.2500  0.0986  -2.0855   0.0000  -0.7199
  -5.500  -0.0773   0.06063   0.04727  -0.1112  0.2500  0.1015  -2.2054   0.0000  -1.2321
  -5.000  -0.0276   0.05229   0.03830  -0.1211  0.2500  0.1072  -2.1810   0.0000  -4.2492
  -4.500   0.0316   0.04622   0.03150  -0.1277  0.2500  0.1156  -2.0750   0.0000   4.3737
  -4.000   0.0965   0.04156   0.02604  -0.1333  0.2500  0.1352  -1.9406   0.0000   1.6571
  -3.500   0.1598   0.03821   0.02230  -0.1367  0.2500  0.1694  -1.8208   0.0000   1.1191
  -3.000   0.2266   0.03513   0.01969  -0.1400  0.2500  0.2500  -1.6955   0.0000   0.8765
  -2.500   0.2837   0.03418   0.01798  -0.1396  0.2500  0.2500  -1.5228   0.0000   0.7477
  -2.000   0.3405   0.03417   0.01714  -0.1405  0.2500  0.2500  -1.2768   0.0000   0.6659
  -1.500   0.3959   0.03436   0.01669  -0.1413  0.2500  0.2500  -1.0286   0.0000   0.6085
  -1.000   0.4496   0.03470   0.01650  -0.1418  0.2500  0.2500  -0.8039   0.0000   0.5658
  -0.500   0.5017   0.03518   0.01656  -0.1422  0.2500  0.2500  -0.8143   0.0000   0.5326
   0.000   0.5521   0.03579   0.01683  -0.1422  0.2500  0.2500  -0.8526   0.0000   0.5059
   0.500   0.6010   0.03653   0.01732  -0.1421  0.2500  0.2500  -0.8904   0.0000   0.4838
   1.000   0.6483   0.03740   0.01802  -0.1418  0.2500  0.2500  -0.9304   0.0000   0.4653
   1.500   0.6940   0.03842   0.01892  -0.1413  0.2500  0.2500  -0.9722   0.0000   0.4494
   2.000   0.7387   0.03959   0.02004  -0.1407  0.2500  0.2500  -1.0150   0.0000   0.4356
   2.500   0.7820   0.04091   0.02137  -0.1401  0.2500  0.2500  -1.0595   0.0000   0.4235
   3.000   0.8235   0.04238   0.02291  -0.1393  0.2500  0.2500  -1.1042   0.0000   0.4128
   3.500   0.8629   0.04406   0.02470  -0.1384  0.2500  0.2500  -1.1498   0.0000   0.4034
   4.000   0.9001   0.04593   0.02678  -0.1374  0.2500  0.2500  -1.1975   0.0000   0.3949
   4.500   0.9354   0.04802   0.02907  -0.1364  0.2500  0.2500  -1.2442   0.0000   0.3873
   5.000   0.9685   0.05035   0.03165  -0.1353  0.2500  0.2500  -1.3068   0.0000   0.3804
   5.500   0.9992   0.05297   0.03463  -0.1341  0.2500  0.2500  -1.3969   0.0000   0.3743
   6.000   1.0274   0.05591   0.03790  -0.1330  0.2500  0.2500  -1.4841   0.0000   0.3687
   6.500   1.0530   0.05918   0.04154  -0.1319  0.2500  0.2500  -1.5679   0.0000   0.3638
   7.000   1.0760   0.06282   0.04558  -0.1309  0.2500  0.2500  -1.6505   0.0000   0.3594
   7.500   1.0961   0.06690   0.05017  -0.1300  0.2500  0.2500  -1.7354   0.0000   0.3555
   8.000   1.1135   0.07138   0.05511  -0.1292  0.2500  0.2500  -1.8150   0.0000   0.3521
   8.500   1.1287   0.07623   0.06043  -0.1285  0.2500  0.2500  -1.8896   0.0000   0.3492
   9.000   1.1425   0.08137   0.06604  -0.1279  0.2500  0.2500  -1.9606   0.0000   0.3465
   9.500   1.1558   0.08668   0.07190  -0.1275  0.2500  0.2500  -2.0291   0.0000   0.3441
  10.000   1.1694   0.09204   0.07774  -0.1272  0.2500  0.2500  -2.0991   0.0000   0.3417
  10.500   1.1839   0.09740   0.08359  -0.1270  0.2500  0.2500  -2.1772   0.0000   0.3393
  11.000   1.1988   0.10287   0.08954  -0.1268  0.2500  0.2500  -2.2531   0.0000   0.3370
  11.500   1.2142   0.10845   0.09566  -0.1267  0.2500  0.2500  -2.3264   0.0000   0.3348
  12.000   1.2290   0.11459   0.10231  -0.1269  0.2500  0.2500  -2.3895   0.0000   0.3328
  12.500   1.2378   0.12301   0.11121  -0.1281  0.2500  0.2500  -2.4151   0.0000   0.3323
  13.000   1.2275   0.13757   0.12617  -0.1323  0.2500  0.2500  -2.3477   0.0000   0.3362
  13.500   1.2022   0.15675   0.14559  -0.1396  0.2500  0.2500  -2.2021   0.0000   0.3443
  14.000   1.1798   0.17000   0.15892  -0.1454  0.2317  0.2500  -2.1065   0.0000   0.3508
  14.500   1.1871   0.17808   0.16717  -0.1477  0.2192  0.2500  -2.1153   0.0000   0.3511
  15.000   1.1774   0.19059   0.17981  -0.1538  0.2102  0.2500  -2.0309   0.0000   0.3568
  15.500   1.2085   0.19398   0.18349  -0.1525  0.1996  0.2500  -2.1558   0.0000   0.3511
  16.000   1.1879   0.20817   0.19773  -0.1616  0.1898  0.2500  -2.0195   0.0000   0.3604
  16.500   1.1925   0.21817   0.20790  -0.1667  0.1850  0.2500  -1.9880   0.0000   0.3633
  17.000   1.2014   0.22757   0.21748  -0.1711  0.1817  0.2500  -1.9837   0.0000   0.3651
  17.500   1.2221   0.23455   0.22466  -0.1726  0.1750  0.2500  -2.0556   0.0000   0.3628
  18.000   1.2169   0.24460   0.23480  -0.1807  0.1693  0.2500  -1.9794   0.0000   0.3692
  18.500   1.2239   0.25402   0.24438  -0.1864  0.1684  0.2500  -1.9711   0.0000   0.3721
  19.000   1.2332   0.26320   0.25377  -0.1920  0.1688  0.2500  -1.9972   0.0000   0.3745
  19.500   1.2431   0.27105   0.26178  -0.1975  0.1648  0.2500  -2.0430   0.0000   0.3765
  20.000   1.2564   0.27865   0.26958  -0.2021  0.1604  0.2500  -2.1119   0.0000   0.3774


