xflr5 v6.42

 Calculated polar for: FX_63-137

 1 1 Reynolds number fixed          Mach number fixed         

 xtrf =   0.250 (top)        0.250 (bottom)
 Mach =   0.000     Re =     0.040 e 6     Ncrit =   5.000

  alpha     CL        CD       CDp       Cm    Top Xtr Bot Xtr   Cpmin    Chinge    XCp    
 ------- -------- --------- --------- -------- ------- ------- -------- --------- ---------
 -10.000  -0.1147   0.12157   0.10963  -0.0749  0.2500  0.1431  -1.2467   0.0000  -0.4569
  -9.500  -0.1334   0.11238   0.10057  -0.0849  0.2500  0.0824  -1.6790   0.0000  -0.4310
  -9.000  -0.1040   0.10497   0.09307  -0.0835  0.2500  0.0754  -1.6069   0.0000  -0.6070
  -8.500  -0.0969   0.09818   0.08638  -0.0857  0.2500  0.0708  -1.6914   0.0000  -0.6904
  -8.000  -0.1018   0.09040   0.07878  -0.0896  0.2500  0.0665  -1.8830   0.0000  -0.6799
  -7.500  -0.1145   0.08157   0.07012  -0.0957  0.2500  0.0636  -2.1630   0.0000  -0.6269
  -7.000  -0.1116   0.07232   0.06093  -0.1037  0.2500  0.0637  -2.3284   0.0000  -0.7189
  -6.500  -0.0998   0.06265   0.05118  -0.1141  0.2500  0.0648  -2.4503   0.0000  -0.9343
  -6.000  -0.0702   0.05520   0.04352  -0.1212  0.2500  0.0674  -2.4256   0.0000  -1.5287
  -5.500  -0.0152   0.04611   0.03358  -0.1338  0.2500  0.0687  -2.4381   0.0000  -8.7798
  -5.000   0.0504   0.04001   0.02656  -0.1414  0.2500  0.0725  -2.3257   0.0000   3.1201
  -4.500   0.1153   0.03606   0.02176  -0.1457  0.2500  0.0833  -2.1465   0.0000   1.5392
  -4.000   0.1697   0.03337   0.01880  -0.1463  0.2500  0.0954  -1.9673   0.0000   1.1273
  -3.500   0.2288   0.03116   0.01633  -0.1479  0.2500  0.1233  -1.8110   0.0000   0.9061
  -3.000   0.3108   0.02832   0.01425  -0.1556  0.2500  0.2500  -1.6151   0.0000   0.7569
  -2.500   0.3705   0.02818   0.01321  -0.1561  0.2500  0.2500  -1.3797   0.0000   0.6755
  -2.000   0.4278   0.02828   0.01270  -0.1568  0.2500  0.2500  -1.1198   0.0000   0.6189
  -1.500   0.4836   0.02850   0.01243  -0.1572  0.2500  0.2500  -0.8661   0.0000   0.5762
  -1.000   0.5380   0.02882   0.01236  -0.1574  0.2500  0.2500  -0.8345   0.0000   0.5426
  -0.500   0.5911   0.02922   0.01245  -0.1574  0.2500  0.2500  -0.8739   0.0000   0.5154
   0.000   0.6429   0.02971   0.01271  -0.1572  0.2500  0.2500  -0.9141   0.0000   0.4927
   0.500   0.6934   0.03028   0.01311  -0.1569  0.2500  0.2500  -0.9551   0.0000   0.4736
   1.000   0.7422   0.03094   0.01364  -0.1562  0.2500  0.2500  -0.9980   0.0000   0.4571
   1.500   0.7889   0.03167   0.01432  -0.1552  0.2500  0.2500  -1.0434   0.0000   0.4426
   2.000   0.8340   0.03250   0.01514  -0.1541  0.2500  0.2500  -1.0904   0.0000   0.4299
   2.500   0.8781   0.03343   0.01611  -0.1529  0.2500  0.2500  -1.1382   0.0000   0.4185
   3.000   0.9215   0.03448   0.01723  -0.1516  0.2500  0.2500  -1.1889   0.0000   0.4082
   3.500   0.9634   0.03565   0.01854  -0.1503  0.2500  0.2500  -1.2415   0.0000   0.3990
   4.000   1.0037   0.03696   0.01999  -0.1488  0.2500  0.2500  -1.2961   0.0000   0.3905
   4.500   1.0422   0.03840   0.02162  -0.1472  0.2500  0.2500  -1.3651   0.0000   0.3828
   5.000   1.0790   0.04001   0.02351  -0.1456  0.2500  0.2500  -1.4685   0.0000   0.3757
   5.500   1.1140   0.04180   0.02555  -0.1439  0.2500  0.2500  -1.5710   0.0000   0.3692
   6.000   1.1471   0.04378   0.02782  -0.1421  0.2500  0.2500  -1.6725   0.0000   0.3631
   6.500   1.1783   0.04597   0.03040  -0.1403  0.2500  0.2500  -1.7836   0.0000   0.3575
   7.000   1.2074   0.04841   0.03320  -0.1385  0.2500  0.2500  -1.8928   0.0000   0.3524
   7.500   1.2344   0.05110   0.03627  -0.1367  0.2500  0.2500  -1.9994   0.0000   0.3476
   8.000   1.2593   0.05406   0.03965  -0.1349  0.2500  0.2500  -2.1031   0.0000   0.3431
   8.500   1.2820   0.05732   0.04341  -0.1332  0.2500  0.2500  -2.2033   0.0000   0.3390
   9.000   1.3026   0.06087   0.04743  -0.1316  0.2500  0.2500  -2.3060   0.0000   0.3353
   9.500   1.3209   0.06472   0.05178  -0.1299  0.2500  0.2500  -2.4094   0.0000   0.3318
  10.000   1.3377   0.06884   0.05646  -0.1284  0.2500  0.2500  -2.5091   0.0000   0.3285
  10.500   1.3536   0.07316   0.06131  -0.1270  0.2500  0.2500  -2.6058   0.0000   0.3254
  11.000   1.3695   0.07753   0.06622  -0.1257  0.2500  0.2500  -2.7008   0.0000   0.3224
  11.500   1.3873   0.08173   0.07097  -0.1242  0.2500  0.2500  -2.7973   0.0000   0.3192
  12.000   1.4089   0.08558   0.07542  -0.1225  0.2500  0.2500  -2.9053   0.0000   0.3158
  12.500   1.4475   0.08759   0.07789  -0.1199  0.2488  0.2500  -3.0505   0.0000   0.3107
  13.000   1.4444   0.09395   0.08440  -0.1186  0.2255  0.2500  -3.1035   0.0000   0.3089
  13.500   1.4277   0.10313   0.09385  -0.1188  0.2060  0.2500  -3.1044   0.0000   0.3091
  14.000   1.4116   0.11271   0.10371  -0.1199  0.1902  0.2500  -3.0983   0.0000   0.3099
  14.500   1.4422   0.11358   0.10447  -0.1173  0.1757  0.2500  -3.2665   0.0000   0.3051
  15.000   1.3338   0.14394   0.13541  -0.1310  0.1646  0.2500  -2.8718   0.0000   0.3218
  15.500   1.3308   0.15309   0.14477  -0.1340  0.1563  0.2500  -2.8782   0.0000   0.3233
  16.000   1.2642   0.18156   0.17320  -0.1495  0.1478  0.2500  -2.5106   0.0000   0.3409
  16.500   1.2464   0.19729   0.18900  -0.1582  0.1396  0.2500  -2.3716   0.0000   0.3491
  17.000   1.2680   0.20081   0.19275  -0.1586  0.1331  0.2500  -2.4948   0.0000   0.3460
  17.500   1.2668   0.21275   0.20479  -0.1647  0.1296  0.2500  -2.4416   0.0000   0.3501
  18.000   1.2553   0.22875   0.22085  -0.1745  0.1270  0.2500  -2.3044   0.0000   0.3586
  18.500   1.2536   0.24068   0.23288  -0.1824  0.1220  0.2500  -2.2701   0.0000   0.3643
  19.000   1.2615   0.24959   0.24193  -0.1879  0.1176  0.2500  -2.3149   0.0000   0.3667
  19.500   1.2700   0.25889   0.25136  -0.1937  0.1162  0.2500  -2.3461   0.0000   0.3693
  20.000   1.2863   0.26593   0.25860  -0.1968  0.1127  0.2500  -2.4800   0.0000   0.3685


