xflr5 v6.42

 Calculated polar for: FX_60-126

 1 1 Reynolds number fixed          Mach number fixed         

 xtrf =   0.250 (top)        0.250 (bottom)
 Mach =   0.000     Re =     3.000 e 6     Ncrit =   5.000

  alpha     CL        CD       CDp       Cm    Top Xtr Bot Xtr   Cpmin    Chinge    XCp    
 ------- -------- --------- --------- -------- ------- ------- -------- --------- ---------
 -10.000  -0.3225   0.09165   0.08809  -0.0500  0.2500  0.0034  -3.1454   0.0000   0.0782
  -9.500  -0.3286   0.07933   0.07580  -0.0556  0.2500  0.0034  -3.6549   0.0000   0.0647
  -9.000  -0.3619   0.05744   0.05382  -0.0709  0.2500  0.0034  -4.5944   0.0000   0.0388
  -8.500  -0.3753   0.04240   0.03859  -0.0912  0.2500  0.0034  -4.9408   0.0000  -0.0068
  -8.000  -0.3378   0.03239   0.02810  -0.1111  0.2500  0.0034  -4.9211   0.0000  -0.0927
  -7.500  -0.2913   0.02710   0.02238  -0.1170  0.2500  0.0034  -4.7032   0.0000  -0.1660
  -7.000  -0.2382   0.02317   0.01805  -0.1205  0.2500  0.0034  -4.4015   0.0000  -0.2720
  -6.500  -0.1817   0.02012   0.01465  -0.1230  0.2500  0.0034  -4.0536   0.0000  -0.4458
  -6.000  -0.1235   0.01770   0.01192  -0.1248  0.2500  0.0034  -3.6799   0.0000  -0.7859
  -5.500  -0.0644   0.01575   0.00973  -0.1262  0.2500  0.0034  -3.2938   0.0000  -1.7530
  -5.000  -0.0050   0.01416   0.00795  -0.1273  0.2500  0.0034  -2.9039   0.0000  -25.7129
  -4.500   0.0561   0.01122   0.00491  -0.1291  0.2500  0.0040  -2.7564   0.0000   2.5878
  -4.000   0.1168   0.01043   0.00409  -0.1303  0.2500  0.0045  -2.2265   0.0000   1.3815
  -3.500   0.1776   0.00986   0.00346  -0.1314  0.2500  0.0053  -1.7479   0.0000   0.9987
  -3.000   0.2366   0.00976   0.00332  -0.1318  0.2500  0.0065  -1.2800   0.0000   0.8123
  -2.500   0.2999   0.00888   0.00234  -0.1336  0.2500  0.0092  -0.9452   0.0000   0.6984
  -1.500   0.3505   0.00000  -0.00536  -0.1037  0.2500  0.0046  -0.4425   0.0000   0.5437
  -1.000   0.4015   0.00000  -0.00537  -0.1035  0.2500  0.0038  -0.4844   0.0000   0.5054
  -0.500   0.4523   0.00000  -0.00538  -0.1033  0.2500  0.0037  -0.5340   0.0000   0.4757
   0.000   0.5974   0.00828   0.00154  -0.1360  0.2500  0.0040  -0.8250   0.0000   0.4761
   0.500   0.6538   0.00853   0.00167  -0.1361  0.2095  0.0350  -0.8822   0.0000   0.4560
   1.500   0.7646   0.00923   0.00209  -0.1360  0.1218  0.0852  -1.0162   0.0000   0.4246
   2.000   0.8218   0.00932   0.00222  -0.1363  0.1158  0.1132  -1.1024   0.0000   0.4120
   2.500   0.8776   0.00957   0.00251  -0.1365  0.0834  0.2073  -1.2088   0.0000   0.4011
   3.000   0.9343   0.00970   0.00271  -0.1367  0.0761  0.2500  -1.3217   0.0000   0.3914
   3.500   0.9873   0.01025   0.00309  -0.1361  0.0457  0.2500  -1.4388   0.0000   0.3824
   4.000   1.0401   0.01078   0.00351  -0.1356  0.0236  0.2500  -1.5773   0.0000   0.3743
   4.500   1.0945   0.01109   0.00382  -0.1353  0.0218  0.2500  -1.7883   0.0000   0.3670
   5.000   1.1453   0.01178   0.00445  -0.1344  0.0015  0.2500  -2.0009   0.0000   0.3601
   5.500   1.1982   0.01218   0.00484  -0.1339  0.0013  0.2500  -2.2214   0.0000   0.3539
   6.000   1.2505   0.01260   0.00528  -0.1333  0.0013  0.2500  -2.4484   0.0000   0.3481
   6.500   1.3021   0.01305   0.00574  -0.1326  0.0013  0.2500  -2.6814   0.0000   0.3426
   7.000   1.3527   0.01355   0.00626  -0.1318  0.0013  0.2500  -2.9199   0.0000   0.3375
   7.500   1.4023   0.01410   0.00685  -0.1307  0.0012  0.2500  -3.1635   0.0000   0.3326
   8.000   1.4499   0.01477   0.00758  -0.1294  0.0011  0.2500  -3.4109   0.0000   0.3279
   8.500   1.4977   0.01534   0.00817  -0.1282  0.0010  0.2500  -3.6648   0.0000   0.3235
   9.000   1.5435   0.01601   0.00887  -0.1266  0.0009  0.2500  -3.9944   0.0000   0.3192
   9.500   1.5873   0.01675   0.00966  -0.1248  0.0009  0.2500  -4.6071   0.0000   0.3149
  10.000   1.6292   0.01754   0.01050  -0.1226  0.0008  0.2500  -5.2459   0.0000   0.3108
  10.500   1.6681   0.01840   0.01143  -0.1200  0.0007  0.2500  -5.8961   0.0000   0.3066
  11.000   1.7028   0.01934   0.01243  -0.1168  0.0006  0.2500  -6.5499   0.0000   0.3023
  11.500   1.7258   0.02038   0.01355  -0.1114  0.0005  0.2500  -7.1446   0.0000   0.2975
  12.000   1.7514   0.02165   0.01489  -0.1070  0.0004  0.2500  -7.7808   0.0000   0.2931
  12.500   1.7750   0.02314   0.01648  -0.1027  0.0003  0.2500  -8.4271   0.0000   0.2890
  13.000   1.7961   0.02493   0.01836  -0.0987  0.0002  0.2500  -9.0755   0.0000   0.2851
  13.500   1.8148   0.02713   0.02065  -0.0951  0.0002  0.2500  -9.7297   0.0000   0.2816
  14.000   1.8305   0.02974   0.02337  -0.0917  0.0001  0.2500  -10.3643   0.0000   0.2783
  14.500   1.8432   0.03286   0.02660  -0.0887  0.0001  0.2500  -10.9827   0.0000   0.2752
  15.000   1.8529   0.03639   0.03025  -0.0860  0.0001  0.2500  -11.5831   0.0000   0.2724
  15.500   1.8578   0.04059   0.03460  -0.0835  0.0001  0.2500  -12.1455   0.0000   0.2698
  16.000   1.8598   0.04536   0.03950  -0.0816  0.0001  0.2500  -12.6855   0.0000   0.2676
  16.500   1.8568   0.05094   0.04524  -0.0801  0.0001  0.2500  -13.1751   0.0000   0.2657
  17.000   1.8514   0.05719   0.05164  -0.0793  0.0000  0.2500  -13.6402   0.0000   0.2642
  17.500   1.8408   0.06456   0.05917  -0.0794  0.0000  0.2500  -14.0429   0.0000   0.2632
  18.000   1.8271   0.07258   0.06737  -0.0800  0.0000  0.2500  -14.4055   0.0000   0.2626
  18.500   1.8066   0.08180   0.07677  -0.0814  0.0000  0.2500  -14.6762   0.0000   0.2625
  19.000   1.7814   0.09219   0.08734  -0.0837  0.0000  0.2500  -14.8707   0.0000   0.2632
  19.500   1.7548   0.10299   0.09834  -0.0866  0.0000  0.2500  -15.0300   0.0000   0.2642
  20.000   1.7202   0.11527   0.11083  -0.0907  0.0000  0.2500  -15.0521   0.0000   0.2663


