xflr5 v6.42

 Calculated polar for: FX_60-126

 1 1 Reynolds number fixed          Mach number fixed         

 xtrf =   0.250 (top)        0.250 (bottom)
 Mach =   0.000     Re =     0.100 e 6     Ncrit =   5.000

  alpha     CL        CD       CDp       Cm    Top Xtr Bot Xtr   Cpmin    Chinge    XCp    
 ------- -------- --------- --------- -------- ------- ------- -------- --------- ---------
 -10.000  -0.3121   0.10565   0.09757  -0.0474  0.2500  0.0252  -1.9708   0.0000   0.0822
  -9.500  -0.3107   0.09585   0.08784  -0.0522  0.2500  0.0229  -2.1869   0.0000   0.0665
  -9.000  -0.3192   0.08122   0.07326  -0.0606  0.2500  0.0202  -2.7227   0.0000   0.0449
  -8.500  -0.3282   0.06881   0.06089  -0.0695  0.2500  0.0195  -3.0009   0.0000   0.0239
  -8.000  -0.3450   0.05441   0.04628  -0.0874  0.2500  0.0189  -3.3492   0.0000  -0.0163
  -7.500  -0.3255   0.04400   0.03511  -0.1013  0.2500  0.0182  -3.4763   0.0000  -0.0739
  -7.000  -0.2844   0.03690   0.02711  -0.1073  0.2500  0.0174  -3.4605   0.0000  -0.1408
  -6.500  -0.2334   0.03191   0.02129  -0.1101  0.2500  0.0167  -3.3528   0.0000  -0.2367
  -6.000  -0.1796   0.02846   0.01725  -0.1111  0.2500  0.0162  -3.1640   0.0000  -0.3863
  -5.500  -0.1253   0.02595   0.01439  -0.1115  0.2500  0.0160  -2.9186   0.0000  -0.6628
  -5.000  -0.0696   0.02398   0.01217  -0.1122  0.2500  0.0160  -2.6424   0.0000  -1.3993
  -4.500  -0.0110   0.02237   0.01021  -0.1136  0.2500  0.0162  -2.3467   0.0000  -10.2662
  -4.000   0.0493   0.02109   0.00855  -0.1152  0.2500  0.0167  -2.0444   0.0000   2.6230
  -3.500   0.1097   0.02014   0.00723  -0.1164  0.2500  0.0177  -1.7458   0.0000   1.3252
  -3.000   0.1697   0.01946   0.00621  -0.1173  0.2500  0.0198  -1.4601   0.0000   0.9484
  -2.500   0.2340   0.01763   0.00530  -0.1205  0.2500  0.2500  -1.1954   0.0000   0.7692
  -2.000   0.2913   0.01765   0.00496  -0.1204  0.2500  0.2500  -0.9308   0.0000   0.6656
  -1.500   0.3482   0.01770   0.00470  -0.1204  0.2500  0.2500  -0.6446   0.0000   0.5965
  -1.000   0.4048   0.01778   0.00458  -0.1203  0.2500  0.2500  -0.6883   0.0000   0.5471
  -0.500   0.4611   0.01789   0.00453  -0.1203  0.2500  0.2500  -0.7324   0.0000   0.5099
   0.000   0.5171   0.01803   0.00458  -0.1202  0.2500  0.2500  -0.7767   0.0000   0.4808
   0.500   0.5728   0.01821   0.00468  -0.1201  0.2500  0.2500  -0.8282   0.0000   0.4574
   1.000   0.6281   0.01841   0.00486  -0.1199  0.2500  0.2500  -0.8832   0.0000   0.4381
   1.500   0.6831   0.01865   0.00512  -0.1197  0.2500  0.2500  -0.9487   0.0000   0.4219
   2.000   0.7376   0.01891   0.00544  -0.1194  0.2500  0.2500  -1.0236   0.0000   0.4080
   2.500   0.7917   0.01921   0.00581  -0.1191  0.2500  0.2500  -1.1145   0.0000   0.3960
   3.000   0.8453   0.01954   0.00628  -0.1187  0.2500  0.2500  -1.2203   0.0000   0.3854
   3.500   0.8984   0.01990   0.00677  -0.1182  0.2500  0.2500  -1.3277   0.0000   0.3760
   4.000   0.9509   0.02031   0.00734  -0.1176  0.2500  0.2500  -1.4461   0.0000   0.3676
   4.500   1.0028   0.02075   0.00804  -0.1170  0.2500  0.2500  -1.5716   0.0000   0.3600
   5.000   1.0539   0.02123   0.00877  -0.1162  0.2500  0.2500  -1.7264   0.0000   0.3530
   5.500   1.1043   0.02177   0.00961  -0.1153  0.2500  0.2500  -1.9248   0.0000   0.3465
   6.000   1.1537   0.02236   0.01051  -0.1142  0.2500  0.2500  -2.1275   0.0000   0.3405
   6.500   1.2021   0.02301   0.01155  -0.1130  0.2500  0.2500  -2.3334   0.0000   0.3349
   7.000   1.2492   0.02374   0.01267  -0.1117  0.2500  0.2500  -2.5414   0.0000   0.3296
   7.500   1.2949   0.02458   0.01394  -0.1100  0.2500  0.2500  -2.7500   0.0000   0.3245
   8.000   1.3352   0.02574   0.01546  -0.1077  0.2403  0.2500  -2.9498   0.0000   0.3194
   8.500   1.3613   0.02763   0.01729  -0.1037  0.1983  0.2500  -3.1236   0.0000   0.3142
   9.000   1.3809   0.02972   0.01935  -0.0989  0.1691  0.2500  -3.2833   0.0000   0.3089
   9.500   1.3990   0.03191   0.02168  -0.0943  0.1463  0.2500  -3.4392   0.0000   0.3039
  10.000   1.4138   0.03456   0.02440  -0.0900  0.1258  0.2500  -3.7248   0.0000   0.2994
  10.500   1.4283   0.03743   0.02745  -0.0863  0.1089  0.2500  -4.1035   0.0000   0.2953
  11.000   1.4386   0.04085   0.03103  -0.0830  0.0961  0.2500  -4.4645   0.0000   0.2917
  11.500   1.4473   0.04468   0.03505  -0.0803  0.0836  0.2500  -4.8223   0.0000   0.2886
  12.000   1.4531   0.04900   0.03967  -0.0780  0.0747  0.2500  -5.1627   0.0000   0.2859
  12.500   1.4584   0.05365   0.04464  -0.0762  0.0675  0.2500  -5.5014   0.0000   0.2835
  13.000   1.4542   0.05957   0.05080  -0.0750  0.0622  0.2500  -5.7742   0.0000   0.2819
  13.500   1.4540   0.06535   0.05696  -0.0742  0.0581  0.2500  -6.0696   0.0000   0.2803
  14.000   1.4497   0.07194   0.06393  -0.0741  0.0544  0.2500  -6.3305   0.0000   0.2794
  14.500   1.4406   0.07953   0.07185  -0.0748  0.0514  0.2500  -6.5483   0.0000   0.2792
  15.000   1.4277   0.08817   0.08080  -0.0765  0.0490  0.2500  -6.7246   0.0000   0.2798
  15.500   1.4119   0.09768   0.09060  -0.0791  0.0470  0.2500  -6.8612   0.0000   0.2812
  16.000   1.3971   0.10729   0.10052  -0.0820  0.0456  0.2500  -6.9877   0.0000   0.2828
  16.500   1.3830   0.11730   0.11096  -0.0856  0.0437  0.2500  -7.0985   0.0000   0.2850
  17.000   1.3630   0.12899   0.12311  -0.0908  0.0414  0.2500  -7.1273   0.0000   0.2888
  17.500   1.3384   0.14224   0.13672  -0.0975  0.0396  0.2500  -7.0706   0.0000   0.2941
  18.000   1.3098   0.15700   0.15182  -0.1056  0.0384  0.2500  -6.9173   0.0000   0.3010
  18.500   1.2594   0.17880   0.17394  -0.1182  0.0391  0.2500  -6.3606   0.0000   0.3140
  19.000   1.1732   0.21787   0.21291  -0.1408  0.0381  0.2500  -4.8357   0.0000   0.3413
  19.500   1.1828   0.22510   0.22028  -0.1454  0.0355  0.2500  -5.0171   0.0000   0.3431
  20.000   1.1819   0.23730   0.23251  -0.1529  0.0315  0.2500  -4.9157   0.0000   0.3489


