xflr5 v6.42

 Calculated polar for: FX_60-126

 1 1 Reynolds number fixed          Mach number fixed         

 xtrf =   0.250 (top)        0.250 (bottom)
 Mach =   0.000     Re =     1.500 e 6     Ncrit =   5.000

  alpha     CL        CD       CDp       Cm    Top Xtr Bot Xtr   Cpmin    Chinge    XCp    
 ------- -------- --------- --------- -------- ------- ------- -------- --------- ---------
 -10.000  -0.0325   0.01998   0.01629  -0.0895  0.2500  0.0065  -2.5992   0.0000  -2.5335
  -9.500  -0.0601   0.01414   0.01035  -0.0954  0.2500  0.0065  -2.8480   0.0000  -1.3576
  -9.000  -0.0928   0.00965   0.00575  -0.0995  0.2500  0.0065  -3.0402   0.0000  -0.8369
  -8.500  -0.1384   0.00614   0.00212  -0.1007  0.2500  0.0064  -3.2307   0.0000  -0.4890
  -8.000  -0.1927   0.00354  -0.00060  -0.1003  0.2500  0.0064  -3.4279   0.0000  -0.2792
  -7.500  -0.2114   0.00160  -0.00279  -0.1024  0.2500  0.0064  -3.4665   0.0000  -0.2422
  -7.000  -0.1876   0.00053  -0.00418  -0.1031  0.2500  0.0065  -3.2930   0.0000  -0.3070
  -6.000  -0.1129   0.00002  -0.00541  -0.1035  0.2500  0.0070  -2.9990   0.0000  -0.6753
  -5.500  -0.0664   0.00000  -0.00550  -0.1032  0.2500  0.0076  -2.5893   0.0000  -1.3142
  -5.000  -0.0179   0.00000  -0.00559  -0.1028  0.2500  0.0086  -2.1934   0.0000  -5.5105
  -4.500   0.0320   0.00000  -0.00570  -0.1025  0.2500  0.0096  -1.8389   0.0000   3.4671
  -4.000   0.1065   0.01185   0.00471  -0.1284  0.2500  0.0112  -1.8986   0.0000   1.4727
  -3.500   0.1681   0.01101   0.00380  -0.1297  0.2500  0.0124  -1.5281   0.0000   1.0306
  -2.500   0.2907   0.01011   0.00267  -0.1313  0.2500  0.0061  -1.0443   0.0000   0.7047
  -2.000   0.3512   0.00978   0.00224  -0.1320  0.2500  0.0053  -0.7613   0.0000   0.6275
  -1.500   0.4108   0.00961   0.00200  -0.1326  0.2500  0.0048  -0.6792   0.0000   0.5733
  -1.000   0.4699   0.00952   0.00187  -0.1330  0.2500  0.0046  -0.7244   0.0000   0.5328
  -0.500   0.5285   0.00948   0.00181  -0.1334  0.2500  0.0048  -0.7698   0.0000   0.5014
   0.000   0.5869   0.00947   0.00180  -0.1338  0.2500  0.0125  -0.8184   0.0000   0.4762
   0.500   0.6460   0.00934   0.00181  -0.1344  0.2500  0.0820  -0.8758   0.0000   0.4558
   1.000   0.7062   0.00903   0.00184  -0.1355  0.2500  0.2131  -0.9445   0.0000   0.4390
   1.500   0.7644   0.00902   0.00194  -0.1359  0.2500  0.2500  -1.0152   0.0000   0.4244
   2.000   0.8214   0.00917   0.00208  -0.1360  0.2453  0.2500  -1.1003   0.0000   0.4117
   2.500   0.8735   0.00985   0.00245  -0.1354  0.1832  0.2500  -1.2044   0.0000   0.4006
   3.000   0.9263   0.01041   0.00283  -0.1349  0.1409  0.2500  -1.3116   0.0000   0.3907
   3.500   0.9802   0.01082   0.00314  -0.1345  0.1203  0.2500  -1.4249   0.0000   0.3817
   4.000   1.0279   0.01190   0.00385  -0.1332  0.0519  0.2500  -1.5631   0.0000   0.3735
   4.500   1.0793   0.01252   0.00435  -0.1324  0.0305  0.2500  -1.7459   0.0000   0.3661
   5.000   1.1320   0.01294   0.00476  -0.1319  0.0244  0.2500  -1.9560   0.0000   0.3593
   5.500   1.1844   0.01335   0.00518  -0.1313  0.0218  0.2500  -2.1779   0.0000   0.3530
   6.000   1.2318   0.01425   0.00603  -0.1299  0.0021  0.2500  -2.4036   0.0000   0.3470
   6.500   1.2821   0.01476   0.00658  -0.1290  0.0019  0.2500  -2.6299   0.0000   0.3415
   7.000   1.3314   0.01532   0.00717  -0.1280  0.0018  0.2500  -2.8614   0.0000   0.3363
   7.500   1.3796   0.01592   0.00783  -0.1268  0.0018  0.2500  -3.0975   0.0000   0.3313
   8.000   1.4263   0.01658   0.00854  -0.1254  0.0018  0.2500  -3.3369   0.0000   0.3266
   8.500   1.4713   0.01731   0.00933  -0.1237  0.0017  0.2500  -3.5788   0.0000   0.3220
   9.000   1.5139   0.01812   0.01023  -0.1216  0.0017  0.2500  -3.8206   0.0000   0.3175
   9.500   1.5525   0.01912   0.01134  -0.1189  0.0015  0.2500  -4.3047   0.0000   0.3130
  10.000   1.5862   0.02027   0.01261  -0.1155  0.0013  0.2500  -4.8467   0.0000   0.3084
  10.500   1.6064   0.02164   0.01414  -0.1097  0.0011  0.2500  -5.3144   0.0000   0.3031
  11.000   1.6349   0.02284   0.01542  -0.1058  0.0010  0.2500  -5.9159   0.0000   0.2986
  11.500   1.6597   0.02437   0.01705  -0.1018  0.0009  0.2500  -6.4992   0.0000   0.2944
  12.000   1.6814   0.02622   0.01901  -0.0979  0.0009  0.2500  -7.0750   0.0000   0.2904
  12.500   1.7010   0.02845   0.02137  -0.0944  0.0008  0.2500  -7.6511   0.0000   0.2867
  13.000   1.7175   0.03110   0.02417  -0.0912  0.0007  0.2500  -8.2178   0.0000   0.2833
  13.500   1.7311   0.03424   0.02746  -0.0883  0.0006  0.2500  -8.7699   0.0000   0.2802
  14.000   1.7412   0.03786   0.03123  -0.0857  0.0004  0.2500  -9.3023   0.0000   0.2774
  14.500   1.7471   0.04211   0.03565  -0.0834  0.0004  0.2500  -9.8079   0.0000   0.2749
  15.000   1.7505   0.04687   0.04057  -0.0816  0.0003  0.2500  -10.3048   0.0000   0.2726
  15.500   1.7488   0.05243   0.04630  -0.0804  0.0003  0.2500  -10.7644   0.0000   0.2708
  16.000   1.7444   0.05871   0.05276  -0.0798  0.0002  0.2500  -11.2010   0.0000   0.2694
  16.500   1.7356   0.06601   0.06025  -0.0799  0.0002  0.2500  -11.5879   0.0000   0.2686
  17.000   1.7204   0.07450   0.06896  -0.0809  0.0002  0.2500  -11.8937   0.0000   0.2683
  17.500   1.6996   0.08412   0.07880  -0.0826  0.0002  0.2500  -12.1160   0.0000   0.2687
  18.000   1.6765   0.09451   0.08941  -0.0851  0.0002  0.2500  -12.2949   0.0000   0.2696
  18.500   1.6473   0.10625   0.10138  -0.0887  0.0002  0.2500  -12.3761   0.0000   0.2715
  19.000   1.6136   0.11897   0.11434  -0.0932  0.0002  0.2500  -12.3720   0.0000   0.2742
  19.500   1.5798   0.13228   0.12789  -0.0987  0.0002  0.2500  -12.3243   0.0000   0.2778
  20.000   1.5429   0.14674   0.14258  -0.1056  0.0002  0.2500  -12.1794   0.0000   0.2826


