xflr5 v6.42

 Calculated polar for: FX_63-137

 1 1 Reynolds number fixed          Mach number fixed         

 xtrf =   0.250 (top)        0.250 (bottom)
 Mach =   0.000     Re =     0.550 e 6     Ncrit =   5.000

  alpha     CL        CD       CDp       Cm    Top Xtr Bot Xtr   Cpmin    Chinge    XCp    
 ------- -------- --------- --------- -------- ------- ------- -------- --------- ---------
 -10.000  -0.3117   0.04092   0.03516  -0.1338  0.2500  0.0102  -6.5523   0.0000  -0.2065
  -9.500  -0.2779   0.02827   0.02174  -0.1606  0.2500  0.0108  -6.6672   0.0000  -0.3560
  -9.000  -0.2189   0.02412   0.01704  -0.1689  0.2500  0.0114  -6.2928   0.0000  -0.5548
  -8.500  -0.1575   0.02160   0.01410  -0.1737  0.2500  0.0119  -5.8288   0.0000  -0.8961
  -8.000  -0.0954   0.01986   0.01202  -0.1772  0.2500  0.0123  -5.3324   0.0000  -1.6736
  -7.500  -0.0308   0.01790   0.00975  -0.1810  0.2500  0.0128  -4.8646   0.0000  -5.8183
  -7.000   0.0336   0.01665   0.00832  -0.1841  0.2500  0.0136  -4.3614   0.0000   5.8966
  -6.500   0.0963   0.01595   0.00749  -0.1863  0.2500  0.0147  -3.8532   0.0000   2.2368
  -6.000   0.1609   0.01514   0.00653  -0.1888  0.2500  0.0157  -3.3904   0.0000   1.4520
  -5.500   0.2258   0.01447   0.00571  -0.1912  0.2500  0.0169  -2.9460   0.0000   1.1156
  -5.000   0.2917   0.01383   0.00495  -0.1939  0.2500  0.0188  -2.5449   0.0000   0.9277
  -4.500   0.3550   0.01347   0.00450  -0.1957  0.2500  0.0213  -2.1986   0.0000   0.8109
  -4.000   0.4181   0.01316   0.00410  -0.1974  0.2500  0.0254  -1.8704   0.0000   0.7293
  -3.500   0.4807   0.01291   0.00384  -0.1990  0.2500  0.0372  -1.5495   0.0000   0.6693
  -3.000   0.5442   0.01262   0.00364  -0.2009  0.2500  0.0762  -1.2388   0.0000   0.6230
  -2.500   0.6090   0.01226   0.00351  -0.2033  0.2500  0.1656  -0.9376   0.0000   0.5864
  -2.000   0.6716   0.01207   0.00347  -0.2051  0.2500  0.2500  -0.8778   0.0000   0.5568
  -1.500   0.7290   0.01220   0.00350  -0.2052  0.2500  0.2500  -0.9263   0.0000   0.5321
  -1.000   0.7859   0.01234   0.00356  -0.2053  0.2500  0.2500  -0.9768   0.0000   0.5110
  -0.500   0.8424   0.01250   0.00366  -0.2054  0.2500  0.2500  -1.0275   0.0000   0.4927
   0.000   0.8985   0.01267   0.00379  -0.2054  0.2500  0.2500  -1.0784   0.0000   0.4767
   0.500   0.9542   0.01286   0.00395  -0.2053  0.2500  0.2500  -1.1294   0.0000   0.4626
   1.000   1.0094   0.01305   0.00414  -0.2052  0.2500  0.2500  -1.1806   0.0000   0.4499
   1.500   1.0641   0.01327   0.00435  -0.2049  0.2500  0.2500  -1.2376   0.0000   0.4385
   2.000   1.1182   0.01350   0.00461  -0.2046  0.2500  0.2500  -1.2979   0.0000   0.4282
   2.500   1.1718   0.01374   0.00488  -0.2042  0.2500  0.2500  -1.3652   0.0000   0.4188
   3.000   1.2247   0.01400   0.00518  -0.2036  0.2500  0.2500  -1.4347   0.0000   0.4101
   3.500   1.2768   0.01428   0.00553  -0.2030  0.2500  0.2500  -1.5564   0.0000   0.4021
   4.000   1.3282   0.01457   0.00590  -0.2022  0.2500  0.2500  -1.6912   0.0000   0.3946
   4.500   1.3787   0.01489   0.00631  -0.2012  0.2500  0.2500  -1.8386   0.0000   0.3876
   5.000   1.4281   0.01522   0.00674  -0.2001  0.2500  0.2500  -1.9881   0.0000   0.3810
   5.500   1.4763   0.01559   0.00721  -0.1987  0.2500  0.2500  -2.1391   0.0000   0.3747
   6.000   1.5230   0.01598   0.00775  -0.1971  0.2500  0.2500  -2.2912   0.0000   0.3687
   6.500   1.5665   0.01640   0.00831  -0.1949  0.2500  0.2500  -2.4508   0.0000   0.3629
   7.000   1.6012   0.01709   0.00906  -0.1910  0.2371  0.2500  -2.6043   0.0000   0.3570
   7.500   1.6283   0.01839   0.01026  -0.1862  0.2054  0.2500  -2.7470   0.0000   0.3512
   8.000   1.6518   0.01995   0.01169  -0.1810  0.1719  0.2500  -2.8847   0.0000   0.3456
   8.500   1.6686   0.02195   0.01353  -0.1750  0.1357  0.2500  -3.0115   0.0000   0.3401
   9.000   1.6866   0.02400   0.01552  -0.1697  0.1123  0.2500  -3.1415   0.0000   0.3349
   9.500   1.7083   0.02594   0.01750  -0.1653  0.0998  0.2500  -3.2841   0.0000   0.3301
  10.000   1.7273   0.02823   0.01985  -0.1610  0.0894  0.2500  -3.4316   0.0000   0.3256
  10.500   1.7492   0.03046   0.02221  -0.1574  0.0843  0.2500  -3.5876   0.0000   0.3214
  11.000   1.7656   0.03324   0.02509  -0.1536  0.0790  0.2500  -3.7324   0.0000   0.3174
  11.500   1.7782   0.03649   0.02844  -0.1498  0.0728  0.2500  -3.8679   0.0000   0.3136
  12.000   1.7955   0.03949   0.03162  -0.1468  0.0706  0.2500  -4.0170   0.0000   0.3101
  12.500   1.8102   0.04285   0.03517  -0.1439  0.0684  0.2500  -4.1631   0.0000   0.3067
  13.000   1.8207   0.04671   0.03919  -0.1410  0.0660  0.2500  -4.3648   0.0000   0.3036
  13.500   1.8277   0.05109   0.04374  -0.1383  0.0635  0.2500  -4.6317   0.0000   0.3007
  14.000   1.8312   0.05607   0.04887  -0.1359  0.0609  0.2500  -4.8862   0.0000   0.2981
  14.500   1.8290   0.06190   0.05486  -0.1337  0.0576  0.2500  -5.1158   0.0000   0.2958
  15.000   1.8349   0.06689   0.06006  -0.1321  0.0560  0.2500  -5.3912   0.0000   0.2935
  15.500   1.8398   0.07210   0.06548  -0.1308  0.0545  0.2500  -5.6787   0.0000   0.2914
  16.000   1.8411   0.07792   0.07150  -0.1298  0.0523  0.2500  -5.9675   0.0000   0.2895
  16.500   1.8382   0.08441   0.07814  -0.1292  0.0493  0.2500  -6.2357   0.0000   0.2880
  17.000   1.8292   0.09184   0.08568  -0.1290  0.0459  0.2500  -6.4671   0.0000   0.2869
  17.500   1.8223   0.09901   0.09305  -0.1291  0.0438  0.2500  -6.7104   0.0000   0.2860
  18.000   1.8188   0.10580   0.10007  -0.1295  0.0423  0.2500  -6.9775   0.0000   0.2850
  18.500   1.8130   0.11303   0.10750  -0.1303  0.0404  0.2500  -7.2276   0.0000   0.2843
  19.000   1.8046   0.12073   0.11537  -0.1318  0.0382  0.2500  -7.4583   0.0000   0.2841
  19.500   1.7931   0.12905   0.12384  -0.1339  0.0358  0.2500  -7.6610   0.0000   0.2843
  20.000   1.7833   0.13712   0.13210  -0.1363  0.0338  0.2500  -7.8706   0.0000   0.2847


