xflr5 v6.42

 Calculated polar for: FX_63-137

 1 1 Reynolds number fixed          Mach number fixed         

 xtrf =   0.250 (top)        0.250 (bottom)
 Mach =   0.000     Re =     0.010 e 6     Ncrit =   5.000

  alpha     CL        CD       CDp       Cm    Top Xtr Bot Xtr   Cpmin    Chinge    XCp    
 ------- -------- --------- --------- -------- ------- ------- -------- --------- ---------
 -10.000  -0.1794   0.14243   0.12405  -0.0571  0.2500  0.2500  -1.3867   0.0000  -0.1027
  -9.500  -0.1720   0.13704   0.11883  -0.0579  0.2500  0.2500  -1.4106   0.0000  -0.1207
  -9.000  -0.1662   0.13174   0.11372  -0.0585  0.2500  0.2500  -1.4354   0.0000  -0.1354
  -8.500  -0.1633   0.12646   0.10868  -0.0589  0.2500  0.2458  -1.4694   0.0000  -0.1432
  -8.000  -0.1714   0.12194   0.10451  -0.0593  0.2500  0.2386  -1.5325   0.0000  -0.1246
  -7.500  -0.1760   0.11699   0.09981  -0.0601  0.2500  0.2342  -1.5876   0.0000  -0.1171
  -7.000  -0.1757   0.11158   0.09469  -0.0603  0.2500  0.2343  -1.6220   0.0000  -0.1174
  -6.500  -0.1762   0.10620   0.08966  -0.0604  0.2500  0.2365  -1.6527   0.0000  -0.1148
  -5.500  -0.1717   0.09574   0.07964  -0.0582  0.2500  0.2459  -1.6740   0.0000  -0.1081
  -5.000  -0.1712   0.09024   0.07438  -0.0590  0.2500  0.2500  -1.7051   0.0000  -0.1123
  -4.500  -0.1640   0.08383   0.06810  -0.0624  0.2500  0.2500  -1.7446   0.0000  -0.1471
  -4.000  -0.1427   0.07643   0.06063  -0.0689  0.2500  0.2500  -1.7796   0.0000  -0.2504
  -3.500  -0.0949   0.06775   0.05147  -0.0804  0.2500  0.2500  -1.8373   0.0000  -0.6214
  -3.000  -0.0182   0.05891   0.04164  -0.0944  0.2500  0.2500  -1.8695   0.0000  -5.0439
  -2.500   0.0503   0.05352   0.03543  -0.1007  0.2500  0.2500  -1.8231   0.0000   2.2887
  -2.000   0.1001   0.05207   0.03312  -0.1013  0.2500  0.2500  -1.6725   0.0000   1.2773
  -1.500   0.1495   0.05194   0.03200  -0.1023  0.2500  0.2500  -1.4726   0.0000   0.9422
  -1.000   0.1994   0.05235   0.03146  -0.1039  0.2500  0.2500  -1.2579   0.0000   0.7753
  -0.500   0.2484   0.05313   0.03146  -0.1056  0.2500  0.2500  -1.0426   0.0000   0.6767
   0.000   0.2960   0.05424   0.03185  -0.1072  0.2500  0.2500  -0.8596   0.0000   0.6121
   0.500   0.3414   0.05565   0.03269  -0.1086  0.2500  0.2500  -0.6925   0.0000   0.5667
   1.000   0.3850   0.05733   0.03391  -0.1099  0.2500  0.2500  -0.7208   0.0000   0.5329
   1.500   0.4265   0.05929   0.03547  -0.1110  0.2500  0.2500  -0.7496   0.0000   0.5068
   2.000   0.4659   0.06150   0.03740  -0.1120  0.2500  0.2500  -0.7772   0.0000   0.4860
   2.500   0.5033   0.06396   0.03967  -0.1128  0.2500  0.2500  -0.8060   0.0000   0.4690
   3.000   0.5386   0.06668   0.04223  -0.1135  0.2500  0.2500  -0.8328   0.0000   0.4549
   3.500   0.5722   0.06963   0.04511  -0.1141  0.2500  0.2500  -0.8610   0.0000   0.4429
   4.000   0.6040   0.07280   0.04827  -0.1147  0.2500  0.2500  -0.8875   0.0000   0.4326
   4.500   0.6346   0.07619   0.05171  -0.1153  0.2500  0.2500  -0.9167   0.0000   0.4237
   5.000   0.6638   0.07979   0.05538  -0.1158  0.2500  0.2500  -0.9440   0.0000   0.4158
   5.500   0.6922   0.08356   0.05927  -0.1163  0.2500  0.2500  -0.9745   0.0000   0.4088
   6.000   0.7198   0.08748   0.06340  -0.1169  0.2500  0.2500  -1.0070   0.0000   0.4024
   6.500   0.7469   0.09154   0.06763  -0.1175  0.2500  0.2500  -1.0639   0.0000   0.3967
   7.000   0.7734   0.09573   0.07201  -0.1181  0.2500  0.2500  -1.1225   0.0000   0.3914
   7.500   0.7996   0.10000   0.07651  -0.1188  0.2500  0.2500  -1.1883   0.0000   0.3865
   8.000   0.8256   0.10434   0.08121  -0.1194  0.2500  0.2500  -1.2550   0.0000   0.3819
   8.500   0.8517   0.10877   0.08594  -0.1202  0.2500  0.2500  -1.3214   0.0000   0.3775
   9.000   0.8777   0.11330   0.09079  -0.1209  0.2500  0.2500  -1.3874   0.0000   0.3735
   9.500   0.9037   0.11796   0.09581  -0.1218  0.2500  0.2500  -1.4619   0.0000   0.3697
  10.000   0.9295   0.12270   0.10107  -0.1227  0.2500  0.2500  -1.5357   0.0000   0.3661
  10.500   0.9548   0.12755   0.10635  -0.1236  0.2500  0.2500  -1.6075   0.0000   0.3628
  11.000   0.9794   0.13267   0.11192  -0.1247  0.2500  0.2500  -1.6754   0.0000   0.3598
  11.500   1.0032   0.13820   0.11793  -0.1260  0.2500  0.2500  -1.7374   0.0000   0.3573
  12.000   1.0257   0.14430   0.12465  -0.1276  0.2500  0.2500  -1.8017   0.0000   0.3553
  12.500   1.0467   0.15117   0.13204  -0.1297  0.2500  0.2500  -1.8544   0.0000   0.3540
  13.000   1.0655   0.15898   0.14035  -0.1322  0.2500  0.2500  -1.8913   0.0000   0.3535
  13.500   1.0821   0.16779   0.14963  -0.1354  0.2500  0.2500  -1.9103   0.0000   0.3538
  14.000   1.0965   0.17752   0.15989  -0.1391  0.2500  0.2500  -1.9159   0.0000   0.3548
  14.500   1.1087   0.18794   0.17069  -0.1433  0.2500  0.2500  -1.9143   0.0000   0.3565
  15.000   1.1193   0.19870   0.18180  -0.1479  0.2500  0.2500  -1.8998   0.0000   0.3587
  15.500   1.1287   0.20946   0.19287  -0.1527  0.2500  0.2500  -1.8769   0.0000   0.3611
  16.000   1.1378   0.21997   0.20366  -0.1576  0.2500  0.2500  -1.8583   0.0000   0.3636
  16.500   1.1466   0.23005   0.21399  -0.1625  0.2500  0.2500  -1.8417   0.0000   0.3661
  17.000   1.1559   0.23977   0.22404  -0.1675  0.2500  0.2500  -1.8243   0.0000   0.3684
  17.500   1.1660   0.24922   0.23374  -0.1725  0.2500  0.2500  -1.8187   0.0000   0.3704
  18.000   1.1768   0.25844   0.24321  -0.1774  0.2500  0.2500  -1.8145   0.0000   0.3724
  18.500   1.1882   0.26746   0.25247  -0.1824  0.2500  0.2500  -1.8200   0.0000   0.3741
  19.000   1.2000   0.27633   0.26160  -0.1874  0.2500  0.2500  -1.8368   0.0000   0.3757
  19.500   1.2123   0.28510   0.27061  -0.1923  0.2500  0.2500  -1.8685   0.0000   0.3771
  20.000   1.2250   0.29378   0.27962  -0.1973  0.2500  0.2500  -1.9172   0.0000   0.3785


