xflr5 v6.42

 Calculated polar for: FX_63-137

 1 1 Reynolds number fixed          Mach number fixed         

 xtrf =   0.250 (top)        0.250 (bottom)
 Mach =   0.000     Re =     2.000 e 6     Ncrit =   5.000

  alpha     CL        CD       CDp       Cm    Top Xtr Bot Xtr   Cpmin    Chinge    XCp    
 ------- -------- --------- --------- -------- ------- ------- -------- --------- ---------
 -10.000  -0.2879   0.01494   0.00867  -0.1866  0.2500  0.0082  -8.0431   0.0000  -0.4285
  -9.500  -0.2262   0.01428   0.00790  -0.1887  0.2500  0.0082  -7.3652   0.0000  -0.6201
  -9.000  -0.1640   0.01366   0.00718  -0.1907  0.2500  0.0083  -6.7116   0.0000  -0.9585
  -8.500  -0.0996   0.01285   0.00621  -0.1933  0.2500  0.0085  -6.0974   0.0000  -1.7617
  -8.000  -0.0343   0.01207   0.00528  -0.1960  0.2500  0.0089  -5.5117   0.0000  -5.6542
  -7.500   0.0296   0.01154   0.00465  -0.1980  0.2500  0.0093  -4.9414   0.0000   7.1405
  -7.000   0.0927   0.01115   0.00417  -0.1998  0.2500  0.0098  -4.3912   0.0000   2.4658
  -6.500   0.1552   0.01084   0.00381  -0.2014  0.2500  0.0104  -3.8635   0.0000   1.5805
  -6.000   0.2172   0.01060   0.00352  -0.2027  0.2500  0.0113  -3.3596   0.0000   1.2052
  -5.500   0.2788   0.01042   0.00329  -0.2040  0.2500  0.0121  -2.9005   0.0000   0.9973
  -5.000   0.3403   0.01025   0.00307  -0.2052  0.2500  0.0128  -2.5154   0.0000   0.8645
  -4.500   0.4021   0.01008   0.00287  -0.2065  0.2500  0.0148  -2.1534   0.0000   0.7722
  -4.000   0.4631   0.00997   0.00274  -0.2075  0.2500  0.0168  -1.8035   0.0000   0.7048
  -3.500   0.5240   0.00987   0.00263  -0.2086  0.2500  0.0215  -1.4739   0.0000   0.6530
  -3.000   0.5846   0.00979   0.00256  -0.2096  0.2500  0.0304  -1.1619   0.0000   0.6121
  -2.500   0.6465   0.00965   0.00250  -0.2109  0.2500  0.0611  -0.8664   0.0000   0.5787
  -2.000   0.7083   0.00950   0.00248  -0.2123  0.2500  0.1123  -0.8934   0.0000   0.5512
  -1.500   0.7729   0.00920   0.00247  -0.2145  0.2500  0.2372  -0.9477   0.0000   0.5281
  -1.000   0.8313   0.00927   0.00253  -0.2150  0.2500  0.2500  -0.9992   0.0000   0.5083
  -0.500   0.8889   0.00938   0.00261  -0.2152  0.2500  0.2500  -1.0506   0.0000   0.4910
   0.000   0.9461   0.00950   0.00271  -0.2154  0.2500  0.2500  -1.1023   0.0000   0.4758
   0.500   1.0031   0.00963   0.00282  -0.2156  0.2500  0.2500  -1.1542   0.0000   0.4623
   1.000   1.0597   0.00976   0.00295  -0.2157  0.2500  0.2500  -1.2097   0.0000   0.4502
   1.500   1.1160   0.00990   0.00309  -0.2158  0.2500  0.2500  -1.2700   0.0000   0.4393
   2.000   1.1720   0.01005   0.00326  -0.2158  0.2500  0.2500  -1.3354   0.0000   0.4294
   2.500   1.2277   0.01021   0.00343  -0.2157  0.2500  0.2500  -1.4069   0.0000   0.4203
   3.000   1.2829   0.01037   0.00363  -0.2156  0.2500  0.2500  -1.4986   0.0000   0.4119
   3.500   1.3378   0.01054   0.00383  -0.2155  0.2500  0.2500  -1.6325   0.0000   0.4042
   4.000   1.3922   0.01072   0.00405  -0.2153  0.2500  0.2500  -1.7846   0.0000   0.3970
   4.500   1.4431   0.01112   0.00441  -0.2144  0.2348  0.2500  -1.9355   0.0000   0.3902
   5.000   1.4900   0.01175   0.00491  -0.2128  0.2071  0.2500  -2.0838   0.0000   0.3837
   5.500   1.5347   0.01247   0.00549  -0.2109  0.1768  0.2500  -2.2318   0.0000   0.3775
   6.000   1.5770   0.01326   0.00614  -0.2085  0.1474  0.2500  -2.3835   0.0000   0.3715
   6.500   1.6125   0.01435   0.00701  -0.2048  0.1092  0.2500  -2.5375   0.0000   0.3655
   7.000   1.6502   0.01515   0.00774  -0.2016  0.0933  0.2500  -2.6990   0.0000   0.3598
   7.500   1.6819   0.01578   0.00839  -0.1970  0.0854  0.2500  -2.8534   0.0000   0.3540
   8.000   1.7153   0.01661   0.00920  -0.1931  0.0776  0.2500  -3.0133   0.0000   0.3485
   8.500   1.7498   0.01740   0.01003  -0.1894  0.0716  0.2500  -3.1780   0.0000   0.3433
   9.000   1.7852   0.01821   0.01088  -0.1861  0.0690  0.2500  -3.3532   0.0000   0.3384
   9.500   1.8141   0.01933   0.01202  -0.1818  0.0642  0.2500  -3.5285   0.0000   0.3335
  10.000   1.8427   0.02054   0.01327  -0.1777  0.0593  0.2500  -3.7052   0.0000   0.3288
  10.500   1.8727   0.02176   0.01456  -0.1741  0.0567  0.2500  -3.8875   0.0000   0.3243
  11.000   1.9008   0.02312   0.01600  -0.1704  0.0559  0.2500  -4.0695   0.0000   0.3200
  11.500   1.9258   0.02478   0.01774  -0.1666  0.0535  0.2500  -4.2474   0.0000   0.3159
  12.000   1.9461   0.02691   0.01991  -0.1625  0.0498  0.2500  -4.4683   0.0000   0.3118
  12.500   1.9641   0.02935   0.02241  -0.1586  0.0451  0.2500  -4.7950   0.0000   0.3080
  13.000   1.9841   0.03172   0.02488  -0.1552  0.0438  0.2500  -5.1406   0.0000   0.3044
  13.500   2.0026   0.03435   0.02762  -0.1520  0.0427  0.2500  -5.4885   0.0000   0.3009
  14.000   2.0147   0.03768   0.03102  -0.1485  0.0392  0.2500  -5.8195   0.0000   0.2976
  14.500   2.0221   0.04161   0.03501  -0.1451  0.0351  0.2500  -6.1597   0.0000   0.2945
  15.000   2.0325   0.04534   0.03886  -0.1423  0.0335  0.2500  -6.5250   0.0000   0.2915
  15.500   2.0392   0.04961   0.04322  -0.1396  0.0312  0.2500  -6.8769   0.0000   0.2887
  16.000   2.0355   0.05520   0.04890  -0.1368  0.0272  0.2500  -7.1722   0.0000   0.2862
  16.500   2.0348   0.06065   0.05446  -0.1346  0.0244  0.2500  -7.4898   0.0000   0.2839
  17.000   2.0186   0.06804   0.06193  -0.1324  0.0192  0.2500  -7.7117   0.0000   0.2820
  17.500   1.9977   0.07626   0.07025  -0.1307  0.0144  0.2500  -7.9012   0.0000   0.2805
  18.000   1.9752   0.08504   0.07915  -0.1298  0.0103  0.2500  -8.0752   0.0000   0.2794
  18.500   1.9543   0.09384   0.08808  -0.1295  0.0079  0.2500  -8.2563   0.0000   0.2786
  19.000   1.9357   0.10240   0.09681  -0.1298  0.0065  0.2500  -8.4486   0.0000   0.2780
  19.500   1.9135   0.11178   0.10635  -0.1309  0.0054  0.2500  -8.6078   0.0000   0.2779
  20.000   1.8963   0.12061   0.11534  -0.1324  0.0045  0.2500  -8.7967   0.0000   0.2780


