xflr5 v6.42

 Calculated polar for: FX_60-126

 1 1 Reynolds number fixed          Mach number fixed         

 xtrf =   0.250 (top)        0.250 (bottom)
 Mach =   0.000     Re =     2.000 e 6     Ncrit =   5.000

  alpha     CL        CD       CDp       Cm    Top Xtr Bot Xtr   Cpmin    Chinge    XCp    
 ------- -------- --------- --------- -------- ------- ------- -------- --------- ---------
 -10.000  -0.0659   0.01619   0.01273  -0.0921  0.2500  0.0049  -3.1269   0.0000  -1.1681
  -9.500  -0.1072   0.01008   0.00649  -0.0983  0.2500  0.0046  -3.5326   0.0000  -0.6808
  -9.000  -0.1533   0.00586   0.00213  -0.1012  0.2500  0.0045  -3.8549   0.0000  -0.4211
  -8.500  -0.3921   0.03321   0.02852  -0.1094  0.2500  0.0035  -5.9104   0.0000  -0.0420
  -8.000  -0.3518   0.02585   0.02063  -0.1167  0.2500  0.0038  -5.8138   0.0000  -0.0951
  -7.500  -0.2994   0.02246   0.01691  -0.1198  0.2500  0.0040  -5.2955   0.0000  -0.1644
  -7.000  -0.2441   0.02001   0.01422  -0.1218  0.2500  0.0042  -4.7187   0.0000  -0.2651
  -6.500  -0.1869   0.01796   0.01193  -0.1235  0.2500  0.0045  -4.1765   0.0000  -0.4296
  -6.000  -0.1286   0.01625   0.00999  -0.1249  0.2500  0.0050  -3.6770   0.0000  -0.7452
  -5.500  -0.0696   0.01496   0.00852  -0.1259  0.2500  0.0057  -3.2044   0.0000  -1.5973
  -5.000  -0.0104   0.01472   0.00812  -0.1265  0.2500  0.0064  -2.6716   0.0000  -12.1826
  -4.500   0.0491   0.01356   0.00680  -0.1273  0.2500  0.0065  -2.2952   0.0000   2.8842
  -4.000   0.1107   0.01134   0.00454  -0.1291  0.2500  0.0077  -2.0144   0.0000   1.4328
  -3.500   0.1714   0.01069   0.00384  -0.1302  0.2500  0.0093  -1.5868   0.0000   1.0182
  -2.500   0.2422   0.00000  -0.00565  -0.1032  0.2500  0.0084  -0.7080   0.0000   0.6744
  -2.000   0.3553   0.00926   0.00212  -0.1330  0.2500  0.0056  -0.7390   0.0000   0.6259
  -1.500   0.4150   0.00910   0.00189  -0.1335  0.2500  0.0046  -0.6795   0.0000   0.5722
  -1.000   0.4742   0.00901   0.00177  -0.1340  0.2500  0.0042  -0.7247   0.0000   0.5322
  -0.500   0.5330   0.00896   0.00171  -0.1344  0.2500  0.0042  -0.7701   0.0000   0.5011
   0.000   0.5915   0.00894   0.00169  -0.1348  0.2500  0.0056  -0.8213   0.0000   0.4762
   0.500   0.6501   0.00890   0.00170  -0.1352  0.2500  0.0424  -0.8787   0.0000   0.4557
   1.000   0.7092   0.00878   0.00174  -0.1358  0.2500  0.1134  -0.9475   0.0000   0.4387
   1.500   0.7661   0.00892   0.00192  -0.1362  0.2180  0.1870  -1.0168   0.0000   0.4245
   2.000   0.8206   0.00933   0.00222  -0.1362  0.1621  0.2500  -1.0989   0.0000   0.4121
   2.500   0.8745   0.00980   0.00253  -0.1358  0.1279  0.2500  -1.2050   0.0000   0.4009
   3.000   0.9301   0.01007   0.00275  -0.1357  0.1158  0.2500  -1.3156   0.0000   0.3910
   3.500   0.9833   0.01056   0.00311  -0.1352  0.0889  0.2500  -1.4302   0.0000   0.3821
   4.000   1.0321   0.01154   0.00378  -0.1341  0.0307  0.2500  -1.5720   0.0000   0.3738
   4.500   1.0857   0.01192   0.00413  -0.1337  0.0243  0.2500  -1.7624   0.0000   0.3665
   5.000   1.1391   0.01228   0.00450  -0.1332  0.0219  0.2500  -1.9793   0.0000   0.3597
   5.500   1.1883   0.01307   0.00523  -0.1321  0.0019  0.2500  -2.1987   0.0000   0.3533
   6.000   1.2399   0.01353   0.00571  -0.1314  0.0016  0.2500  -2.4230   0.0000   0.3474
   6.500   1.2908   0.01402   0.00622  -0.1306  0.0016  0.2500  -2.6525   0.0000   0.3420
   7.000   1.3407   0.01455   0.00678  -0.1296  0.0015  0.2500  -2.8867   0.0000   0.3368
   7.500   1.3895   0.01513   0.00741  -0.1285  0.0015  0.2500  -3.1254   0.0000   0.3319
   8.000   1.4369   0.01577   0.00809  -0.1272  0.0015  0.2500  -3.3683   0.0000   0.3272
   8.500   1.4825   0.01648   0.00887  -0.1256  0.0015  0.2500  -3.6141   0.0000   0.3226
   9.000   1.5253   0.01734   0.00982  -0.1235  0.0012  0.2500  -3.8589   0.0000   0.3181
   9.500   1.5653   0.01828   0.01085  -0.1210  0.0010  0.2500  -4.3915   0.0000   0.3137
  10.000   1.6048   0.01913   0.01174  -0.1185  0.0010  0.2500  -5.0170   0.0000   0.3094
  10.500   1.6378   0.02011   0.01282  -0.1150  0.0009  0.2500  -5.6131   0.0000   0.3049
  11.000   1.6621   0.02122   0.01401  -0.1099  0.0009  0.2500  -6.1786   0.0000   0.3000
  11.500   1.6879   0.02255   0.01543  -0.1056  0.0008  0.2500  -6.7771   0.0000   0.2956
  12.000   1.7115   0.02413   0.01711  -0.1015  0.0007  0.2500  -7.3804   0.0000   0.2914
  12.500   1.7322   0.02604   0.01914  -0.0976  0.0006  0.2500  -7.9795   0.0000   0.2875
  13.000   1.7508   0.02834   0.02157  -0.0941  0.0005  0.2500  -8.5794   0.0000   0.2839
  13.500   1.7665   0.03106   0.02441  -0.0909  0.0004  0.2500  -9.1691   0.0000   0.2806
  14.000   1.7802   0.03418   0.02767  -0.0880  0.0003  0.2500  -9.7599   0.0000   0.2776
  14.500   1.7904   0.03776   0.03138  -0.0855  0.0002  0.2500  -10.3396   0.0000   0.2748
  15.000   1.7965   0.04196   0.03571  -0.0833  0.0002  0.2500  -10.8964   0.0000   0.2724
  15.500   1.7989   0.04679   0.04069  -0.0815  0.0002  0.2500  -11.4254   0.0000   0.2702
  16.000   1.7954   0.05253   0.04660  -0.0802  0.0002  0.2500  -11.8792   0.0000   0.2684
  16.500   1.7889   0.05909   0.05335  -0.0796  0.0002  0.2500  -12.2996   0.0000   0.2670
  17.000   1.7793   0.06644   0.06089  -0.0797  0.0001  0.2500  -12.6849   0.0000   0.2661
  17.500   1.7634   0.07497   0.06961  -0.0807  0.0001  0.2500  -12.9922   0.0000   0.2658
  18.000   1.7434   0.08440   0.07925  -0.0823  0.0001  0.2500  -13.2416   0.0000   0.2660
  18.500   1.7201   0.09469   0.08974  -0.0848  0.0001  0.2500  -13.4367   0.0000   0.2668
  19.000   1.6902   0.10636   0.10163  -0.0883  0.0001  0.2500  -13.5250   0.0000   0.2685
  19.500   1.6565   0.11885   0.11434  -0.0927  0.0001  0.2500  -13.5354   0.0000   0.2710
  20.000   1.6236   0.13173   0.12744  -0.0979  0.0001  0.2500  -13.5169   0.0000   0.2741


