xflr5 v6.42

 Calculated polar for: FX_63-137

 1 1 Reynolds number fixed          Mach number fixed         

 xtrf =   0.250 (top)        0.250 (bottom)
 Mach =   0.000     Re =     1.500 e 6     Ncrit =   5.000

  alpha     CL        CD       CDp       Cm    Top Xtr Bot Xtr   Cpmin    Chinge    XCp    
 ------- -------- --------- --------- -------- ------- ------- -------- --------- ---------
 -10.000  -0.3011   0.01705   0.01068  -0.1814  0.2500  0.0083  -7.9760   0.0000  -0.3816
  -9.500  -0.2379   0.01581   0.00923  -0.1847  0.2500  0.0085  -7.3361   0.0000  -0.5605
  -9.000  -0.1719   0.01442   0.00762  -0.1885  0.2500  0.0089  -6.7310   0.0000  -0.8903
  -8.500  -0.1079   0.01360   0.00666  -0.1911  0.2500  0.0093  -6.1187   0.0000  -1.5863
  -8.000  -0.0445   0.01298   0.00593  -0.1932  0.2500  0.0097  -5.5215   0.0000  -4.2406
  -7.500   0.0187   0.01247   0.00532  -0.1952  0.2500  0.0101  -4.9469   0.0000  11.0017
  -7.000   0.0818   0.01203   0.00479  -0.1970  0.2500  0.0105  -4.3978   0.0000   2.7268
  -6.500   0.1447   0.01166   0.00433  -0.1987  0.2500  0.0111  -3.8745   0.0000   1.6589
  -6.000   0.2069   0.01138   0.00399  -0.2002  0.2500  0.0119  -3.3723   0.0000   1.2408
  -5.500   0.2686   0.01116   0.00371  -0.2016  0.2500  0.0124  -2.8973   0.0000   1.0164
  -5.000   0.3318   0.01086   0.00334  -0.2032  0.2500  0.0143  -2.5311   0.0000   0.8743
  -4.500   0.3934   0.01069   0.00313  -0.2045  0.2500  0.0160  -2.1648   0.0000   0.7786
  -4.000   0.4544   0.01057   0.00297  -0.2056  0.2500  0.0179  -1.8188   0.0000   0.7090
  -3.500   0.5155   0.01046   0.00284  -0.2067  0.2500  0.0230  -1.4902   0.0000   0.6559
  -3.000   0.5767   0.01034   0.00275  -0.2078  0.2500  0.0363  -1.1780   0.0000   0.6140
  -2.500   0.6392   0.01015   0.00268  -0.2094  0.2500  0.0789  -0.8809   0.0000   0.5801
  -2.000   0.7010   0.01000   0.00266  -0.2108  0.2500  0.1343  -0.8904   0.0000   0.5522
  -1.500   0.7651   0.00973   0.00266  -0.2129  0.2500  0.2500  -0.9445   0.0000   0.5288
  -1.000   0.8227   0.00984   0.00272  -0.2131  0.2500  0.2500  -0.9955   0.0000   0.5088
  -0.500   0.8800   0.00996   0.00280  -0.2133  0.2500  0.2500  -1.0468   0.0000   0.4913
   0.000   0.9371   0.01009   0.00291  -0.2135  0.2500  0.2500  -1.0984   0.0000   0.4760
   0.500   0.9938   0.01023   0.00303  -0.2136  0.2500  0.2500  -1.1502   0.0000   0.4623
   1.000   1.0502   0.01037   0.00317  -0.2137  0.2500  0.2500  -1.2039   0.0000   0.4501
   1.500   1.1062   0.01053   0.00332  -0.2137  0.2500  0.2500  -1.2639   0.0000   0.4391
   2.000   1.1619   0.01069   0.00350  -0.2136  0.2500  0.2500  -1.3280   0.0000   0.4291
   2.500   1.2171   0.01086   0.00369  -0.2135  0.2500  0.2500  -1.3990   0.0000   0.4200
   3.000   1.2720   0.01104   0.00391  -0.2133  0.2500  0.2500  -1.4853   0.0000   0.4116
   3.500   1.3264   0.01123   0.00414  -0.2131  0.2500  0.2500  -1.6183   0.0000   0.4038
   4.000   1.3802   0.01143   0.00438  -0.2128  0.2500  0.2500  -1.7671   0.0000   0.3965
   4.500   1.4335   0.01164   0.00466  -0.2124  0.2500  0.2500  -1.9211   0.0000   0.3897
   5.000   1.4842   0.01201   0.00502  -0.2115  0.2392  0.2500  -2.0748   0.0000   0.3833
   5.500   1.5289   0.01271   0.00560  -0.2095  0.2108  0.2500  -2.2228   0.0000   0.3771
   6.000   1.5698   0.01357   0.00630  -0.2069  0.1788  0.2500  -2.3705   0.0000   0.3711
   6.500   1.6074   0.01451   0.00709  -0.2036  0.1455  0.2500  -2.5281   0.0000   0.3652
   7.000   1.6356   0.01569   0.00808  -0.1986  0.1105  0.2500  -2.6720   0.0000   0.3591
   7.500   1.6638   0.01657   0.00892  -0.1935  0.0967  0.2500  -2.8191   0.0000   0.3531
   8.000   1.6974   0.01745   0.00980  -0.1897  0.0865  0.2500  -2.9784   0.0000   0.3477
   8.500   1.7296   0.01843   0.01080  -0.1858  0.0794  0.2500  -3.1377   0.0000   0.3425
   9.000   1.7603   0.01950   0.01189  -0.1817  0.0721  0.2500  -3.2980   0.0000   0.3375
   9.500   1.7927   0.02052   0.01299  -0.1782  0.0698  0.2500  -3.4791   0.0000   0.3327
  10.000   1.8205   0.02185   0.01437  -0.1742  0.0657  0.2500  -3.6535   0.0000   0.3280
  10.500   1.8451   0.02345   0.01602  -0.1700  0.0616  0.2500  -3.8228   0.0000   0.3235
  11.000   1.8691   0.02521   0.01785  -0.1660  0.0574  0.2500  -3.9916   0.0000   0.3192
  11.500   1.8947   0.02699   0.01975  -0.1625  0.0564  0.2500  -4.1677   0.0000   0.3152
  12.000   1.9184   0.02902   0.02188  -0.1592  0.0547  0.2500  -4.3454   0.0000   0.3113
  12.500   1.9374   0.03146   0.02440  -0.1556  0.0520  0.2500  -4.6715   0.0000   0.3076
  13.000   1.9505   0.03454   0.02754  -0.1518  0.0479  0.2500  -4.9807   0.0000   0.3040
  13.500   1.9642   0.03776   0.03086  -0.1485  0.0443  0.2500  -5.2999   0.0000   0.3006
  14.000   1.9806   0.04085   0.03408  -0.1457  0.0436  0.2500  -5.6402   0.0000   0.2975
  14.500   1.9923   0.04447   0.03781  -0.1429  0.0413  0.2500  -5.9901   0.0000   0.2944
  15.000   1.9978   0.04883   0.04225  -0.1400  0.0383  0.2500  -6.3226   0.0000   0.2916
  15.500   2.0000   0.05376   0.04728  -0.1374  0.0347  0.2500  -6.6412   0.0000   0.2890
  16.000   2.0047   0.05860   0.05228  -0.1353  0.0333  0.2500  -6.9807   0.0000   0.2865
  16.500   2.0053   0.06404   0.05784  -0.1334  0.0312  0.2500  -7.3011   0.0000   0.2843
  17.000   1.9965   0.07062   0.06452  -0.1316  0.0276  0.2500  -7.5659   0.0000   0.2824
  17.500   1.9888   0.07734   0.07137  -0.1304  0.0246  0.2500  -7.8383   0.0000   0.2806
  18.000   1.9694   0.08573   0.07985  -0.1295  0.0198  0.2500  -8.0330   0.0000   0.2795
  18.500   1.9455   0.09497   0.08922  -0.1294  0.0157  0.2500  -8.1923   0.0000   0.2789
  19.000   1.9194   0.10462   0.09901  -0.1299  0.0121  0.2500  -8.3281   0.0000   0.2787
  19.500   1.8944   0.11444   0.10898  -0.1312  0.0093  0.2500  -8.4617   0.0000   0.2788


