xflr5 v6.42

 Calculated polar for: FX_60-126

 1 1 Reynolds number fixed          Mach number fixed         

 xtrf =   0.250 (top)        0.250 (bottom)
 Mach =   0.000     Re =     0.007 e 6     Ncrit =   5.000

  alpha     CL        CD       CDp       Cm    Top Xtr Bot Xtr   Cpmin    Chinge    XCp    
 ------- -------- --------- --------- -------- ------- ------- -------- --------- ---------
 -10.000  -0.3420   0.14374   0.12451  -0.0300  0.2500  0.2500  -1.8333   0.0000   0.1490
  -9.500  -0.3341   0.13675   0.11772  -0.0321  0.2500  0.2500  -1.9004   0.0000   0.1408
  -8.500  -0.3224   0.12261   0.10393  -0.0362  0.2500  0.2500  -2.0582   0.0000   0.1256
  -8.000  -0.3191   0.11552   0.09712  -0.0381  0.2500  0.2500  -2.1515   0.0000   0.1188
  -7.500  -0.3147   0.10795   0.08982  -0.0407  0.2500  0.2500  -2.2565   0.0000   0.1094
  -7.000  -0.3102   0.10002   0.08217  -0.0436  0.2500  0.2500  -2.3754   0.0000   0.0985
  -6.500  -0.3043   0.09161   0.07399  -0.0470  0.2500  0.2500  -2.5089   0.0000   0.0853
  -6.000  -0.2949   0.08262   0.06515  -0.0507  0.2500  0.2500  -2.6538   0.0000   0.0677
  -5.500  -0.2782   0.07337   0.05583  -0.0547  0.2500  0.2500  -2.7886   0.0000   0.0430
  -5.000  -0.2518   0.06557   0.04754  -0.0573  0.2500  0.2500  -2.8351   0.0000   0.0118
  -4.500  -0.2184   0.06066   0.04172  -0.0579  0.2500  0.2500  -2.7369   0.0000  -0.0265
  -4.000  -0.1817   0.05747   0.03749  -0.0580  0.2500  0.2500  -2.5509   0.0000  -0.0816
  -3.500  -0.1418   0.05499   0.03387  -0.0587  0.2500  0.2500  -2.3198   0.0000  -0.1775
  -3.000  -0.0995   0.05318   0.03100  -0.0596  0.2500  0.2500  -2.0594   0.0000  -0.3656
  -2.500  -0.0555   0.05188   0.02870  -0.0606  0.2500  0.2500  -1.7825   0.0000  -0.8678
  -2.000  -0.0102   0.05101   0.02689  -0.0617  0.2500  0.2500  -1.4986   0.0000  -5.9242
  -1.500   0.0361   0.05052   0.02547  -0.0628  0.2500  0.2500  -1.2144   0.0000   2.0159
  -1.000   0.0826   0.05039   0.02455  -0.0639  0.2500  0.2500  -0.9360   0.0000   1.0313
  -0.500   0.1287   0.05059   0.02405  -0.0650  0.2500  0.2500  -0.6687   0.0000   0.7568
   0.000   0.1742   0.05109   0.02390  -0.0659  0.2500  0.2500  -0.5453   0.0000   0.6281
   0.500   0.2187   0.05186   0.02418  -0.0667  0.2500  0.2500  -0.5770   0.0000   0.5536
   1.000   0.2621   0.05291   0.02479  -0.0675  0.2500  0.2500  -0.6097   0.0000   0.5050
   1.500   0.3044   0.05423   0.02581  -0.0683  0.2500  0.2500  -0.6446   0.0000   0.4709
   2.000   0.3452   0.05581   0.02720  -0.0690  0.2500  0.2500  -0.6783   0.0000   0.4457
   2.500   0.3844   0.05765   0.02889  -0.0696  0.2500  0.2500  -0.7182   0.0000   0.4264
   3.000   0.4218   0.05976   0.03095  -0.0701  0.2500  0.2500  -0.7575   0.0000   0.4111
   3.500   0.4577   0.06211   0.03334  -0.0707  0.2500  0.2500  -0.8040   0.0000   0.3987
   4.000   0.4920   0.06471   0.03610  -0.0712  0.2500  0.2500  -0.8519   0.0000   0.3885
   4.500   0.5249   0.06757   0.03908  -0.0717  0.2500  0.2500  -0.9005   0.0000   0.3799
   5.000   0.5566   0.07066   0.04237  -0.0723  0.2500  0.2500  -0.9613   0.0000   0.3726
   5.500   0.5871   0.07397   0.04593  -0.0728  0.2500  0.2500  -1.0205   0.0000   0.3662
   6.000   0.6166   0.07751   0.04984  -0.0734  0.2500  0.2500  -1.0777   0.0000   0.3606
   6.500   0.6450   0.08126   0.05389  -0.0739  0.2500  0.2500  -1.1342   0.0000   0.3557
   7.000   0.6728   0.08523   0.05821  -0.0746  0.2500  0.2500  -1.1989   0.0000   0.3514
   7.500   0.7002   0.08942   0.06278  -0.0753  0.2500  0.2500  -1.2622   0.0000   0.3475
   8.000   0.7274   0.09387   0.06786  -0.0760  0.2500  0.2500  -1.3242   0.0000   0.3440
   8.500   0.7543   0.09857   0.07302  -0.0769  0.2500  0.2500  -1.3972   0.0000   0.3408
   9.000   0.7806   0.10348   0.07843  -0.0778  0.2500  0.2500  -1.4741   0.0000   0.3379
   9.500   0.8058   0.10874   0.08431  -0.0788  0.2500  0.2500  -1.5724   0.0000   0.3355
  10.000   0.8299   0.11450   0.09062  -0.0801  0.2500  0.2500  -1.6637   0.0000   0.3336
  10.500   0.8522   0.12089   0.09755  -0.0817  0.2500  0.2500  -1.7445   0.0000   0.3324
  11.000   0.8724   0.12801   0.10531  -0.0837  0.2500  0.2500  -1.8116   0.0000   0.3319
  11.500   0.8905   0.13593   0.11376  -0.0862  0.2500  0.2500  -1.8629   0.0000   0.3322
  12.000   0.9064   0.14458   0.12289  -0.0891  0.2500  0.2500  -1.8975   0.0000   0.3332
  12.500   0.9206   0.15381   0.13258  -0.0924  0.2500  0.2500  -1.9171   0.0000   0.3347
  13.000   0.9333   0.16351   0.14269  -0.0961  0.2500  0.2500  -1.9221   0.0000   0.3367
  13.500   0.9445   0.17350   0.15305  -0.1000  0.2500  0.2500  -1.9138   0.0000   0.3391
  14.000   0.9547   0.18360   0.16360  -0.1041  0.2500  0.2500  -1.8948   0.0000   0.3418
  14.500   0.9642   0.19364   0.17395  -0.1084  0.2500  0.2500  -1.8673   0.0000   0.3445
  15.000   0.9731   0.20341   0.18401  -0.1127  0.2500  0.2500  -1.8510   0.0000   0.3473
  15.500   0.9821   0.21290   0.19377  -0.1170  0.2500  0.2500  -1.8326   0.0000   0.3500
  16.000   0.9916   0.22219   0.20330  -0.1214  0.2500  0.2500  -1.8118   0.0000   0.3526
  16.500   1.0018   0.23127   0.21264  -0.1258  0.2500  0.2500  -1.8031   0.0000   0.3550
  17.000   1.0126   0.24020   0.22180  -0.1302  0.2500  0.2500  -1.8892   0.0000   0.3572
  17.500   1.0241   0.24898   0.23092  -0.1346  0.2500  0.2500  -1.9767   0.0000   0.3594
  18.000   1.0361   0.25764   0.23981  -0.1391  0.2500  0.2500  -2.0654   0.0000   0.3613
  18.500   1.0487   0.26620   0.24860  -0.1436  0.2500  0.2500  -2.1543   0.0000   0.3631
  19.000   1.0617   0.27467   0.25730  -0.1481  0.2500  0.2500  -2.2430   0.0000   0.3648
  19.500   1.0750   0.28306   0.26593  -0.1526  0.2500  0.2500  -2.3303   0.0000   0.3664
  20.000   1.0887   0.29140   0.27450  -0.1572  0.2500  0.2500  -2.4151   0.0000   0.3679


