xflr5 v6.42

 Calculated polar for: FX_60-126

 1 1 Reynolds number fixed          Mach number fixed         

 xtrf =   0.250 (top)        0.250 (bottom)
 Mach =   0.000     Re =     0.010 e 6     Ncrit =   5.000

  alpha     CL        CD       CDp       Cm    Top Xtr Bot Xtr   Cpmin    Chinge    XCp    
 ------- -------- --------- --------- -------- ------- ------- -------- --------- ---------
 -10.000  -0.3354   0.13834   0.12100  -0.0335  0.2500  0.1994  -1.7474   0.0000   0.1368
  -9.500  -0.3289   0.13148   0.11431  -0.0360  0.2500  0.2007  -1.8129   0.0000   0.1276
  -9.000  -0.3248   0.12461   0.10766  -0.0385  0.2500  0.2025  -1.8882   0.0000   0.1188
  -8.500  -0.3241   0.11775   0.10094  -0.0413  0.2500  0.2044  -1.9761   0.0000   0.1107
  -8.000  -0.3054   0.11084   0.09418  -0.0410  0.2500  0.2183  -1.9926   0.0000   0.1037
  -7.500  -0.3047   0.10388   0.08750  -0.0444  0.2500  0.2258  -2.0905   0.0000   0.0930
  -7.000  -0.2938   0.09753   0.08137  -0.0450  0.2500  0.2479  -2.1408   0.0000   0.0860
  -6.500  -0.2894   0.08923   0.07331  -0.0495  0.2500  0.2500  -2.2708   0.0000   0.0686
  -6.000  -0.2801   0.07985   0.06409  -0.0548  0.2500  0.2500  -2.4272   0.0000   0.0442
  -5.500  -0.2628   0.06911   0.05334  -0.0615  0.2500  0.2500  -2.6257   0.0000   0.0058
  -5.000  -0.2292   0.05792   0.04173  -0.0677  0.2500  0.2500  -2.8277   0.0000  -0.0568
  -4.500  -0.1876   0.05242   0.03519  -0.0685  0.2500  0.2500  -2.7758   0.0000  -0.1278
  -4.000  -0.1434   0.04969   0.03128  -0.0687  0.2500  0.2500  -2.5690   0.0000  -0.2440
  -3.500  -0.0964   0.04772   0.02807  -0.0696  0.2500  0.2500  -2.3047   0.0000  -0.4919
  -3.000  -0.0473   0.04635   0.02561  -0.0708  0.2500  0.2500  -2.0092   0.0000  -1.2776
  -2.500   0.0031   0.04538   0.02366  -0.0720  0.2500  0.2500  -1.6998   0.0000  24.0896
  -2.000   0.0541   0.04476   0.02209  -0.0732  0.2500  0.2500  -1.3877   0.0000   1.6217
  -1.500   0.1051   0.04442   0.02096  -0.0743  0.2500  0.2500  -1.0810   0.0000   0.9634
  -1.000   0.1556   0.04434   0.02021  -0.0752  0.2500  0.2500  -0.7863   0.0000   0.7360
  -0.500   0.2053   0.04450   0.01976  -0.0760  0.2500  0.2500  -0.5679   0.0000   0.6206
   0.000   0.2531   0.04487   0.01968  -0.0764  0.2500  0.2500  -0.6004   0.0000   0.5511
   0.500   0.2992   0.04546   0.01988  -0.0767  0.2500  0.2500  -0.6366   0.0000   0.5043
   1.000   0.3435   0.04628   0.02045  -0.0767  0.2500  0.2500  -0.6736   0.0000   0.4706
   1.500   0.3862   0.04733   0.02135  -0.0767  0.2500  0.2500  -0.7123   0.0000   0.4452
   2.000   0.4274   0.04863   0.02255  -0.0767  0.2500  0.2500  -0.7516   0.0000   0.4254
   2.500   0.4673   0.05019   0.02412  -0.0767  0.2500  0.2500  -0.7968   0.0000   0.4096
   3.000   0.5057   0.05204   0.02605  -0.0768  0.2500  0.2500  -0.8444   0.0000   0.3967
   3.500   0.5424   0.05418   0.02838  -0.0769  0.2500  0.2500  -0.8989   0.0000   0.3861
   4.000   0.5769   0.05662   0.03100  -0.0770  0.2500  0.2500  -0.9516   0.0000   0.3773
   4.500   0.6096   0.05937   0.03398  -0.0772  0.2500  0.2500  -1.0180   0.0000   0.3699
   5.000   0.6401   0.06242   0.03731  -0.0774  0.2500  0.2500  -1.0814   0.0000   0.3636
   5.500   0.6689   0.06577   0.04106  -0.0776  0.2500  0.2500  -1.1421   0.0000   0.3582
   6.000   0.6963   0.06937   0.04499  -0.0779  0.2500  0.2500  -1.2010   0.0000   0.3534
   6.500   0.7221   0.07324   0.04922  -0.0781  0.2500  0.2500  -1.2673   0.0000   0.3493
   7.000   0.7474   0.07732   0.05370  -0.0785  0.2500  0.2500  -1.3319   0.0000   0.3455
   7.500   0.7725   0.08161   0.05861  -0.0788  0.2500  0.2500  -1.3951   0.0000   0.3419
   8.000   0.7973   0.08617   0.06364  -0.0793  0.2500  0.2500  -1.4694   0.0000   0.3388
   8.500   0.8220   0.09097   0.06894  -0.0798  0.2500  0.2500  -1.5566   0.0000   0.3358
   9.000   0.8465   0.09596   0.07455  -0.0803  0.2500  0.2500  -1.6608   0.0000   0.3330
   9.500   0.8694   0.10135   0.08049  -0.0810  0.2500  0.2500  -1.7588   0.0000   0.3307
  10.000   0.8906   0.10737   0.08709  -0.0820  0.2500  0.2500  -1.8466   0.0000   0.3290
  10.500   0.9093   0.11427   0.09463  -0.0834  0.2500  0.2500  -1.9189   0.0000   0.3281
  11.000   0.9248   0.12222   0.10311  -0.0855  0.2500  0.2500  -1.9705   0.0000   0.3282
  11.500   0.9369   0.13120   0.11258  -0.0881  0.2500  0.2500  -1.9996   0.0000   0.3294
  12.000   0.9467   0.14100   0.12281  -0.0913  0.2500  0.2500  -2.0087   0.0000   0.3313
  12.500   0.9545   0.15139   0.13358  -0.0950  0.2500  0.2500  -2.0001   0.0000   0.3338
  13.000   0.9609   0.16210   0.14463  -0.0990  0.2500  0.2500  -1.9772   0.0000   0.3368
  13.500   0.9666   0.17286   0.15577  -0.1032  0.2500  0.2500  -1.9438   0.0000   0.3401
  14.000   0.9721   0.18349   0.16666  -0.1076  0.2500  0.2500  -1.9031   0.0000   0.3435
  14.500   0.9779   0.19382   0.17723  -0.1121  0.2500  0.2500  -1.8675   0.0000   0.3468
  15.000   0.9838   0.20367   0.18729  -0.1165  0.2500  0.2500  -1.8388   0.0000   0.3500
  15.500   0.9908   0.21318   0.19701  -0.1209  0.2500  0.2500  -1.8095   0.0000   0.3530
  16.000   0.9990   0.22243   0.20645  -0.1253  0.2500  0.2500  -1.7799   0.0000   0.3557
  16.500   1.0082   0.23145   0.21567  -0.1297  0.2500  0.2500  -1.8316   0.0000   0.3582
  17.000   1.0185   0.24029   0.22470  -0.1341  0.2500  0.2500  -1.9147   0.0000   0.3605
  17.500   1.0296   0.24897   0.23366  -0.1386  0.2500  0.2500  -2.0008   0.0000   0.3626
  18.000   1.0414   0.25750   0.24239  -0.1430  0.2500  0.2500  -2.0896   0.0000   0.3645
  18.500   1.0538   0.26593   0.25100  -0.1475  0.2500  0.2500  -2.1798   0.0000   0.3662
  19.000   1.0668   0.27426   0.25953  -0.1520  0.2500  0.2500  -2.2705   0.0000   0.3679
  19.500   1.0801   0.28252   0.26799  -0.1565  0.2500  0.2500  -2.3600   0.0000   0.3694
  20.000   1.0938   0.29074   0.27642  -0.1611  0.2500  0.2500  -2.4466   0.0000   0.3707


