xflr5 v6.42

 Calculated polar for: FX_63-137

 1 1 Reynolds number fixed          Mach number fixed         

 xtrf =   0.250 (top)        0.250 (bottom)
 Mach =   0.000     Re =     3.000 e 6     Ncrit =   5.000

  alpha     CL        CD       CDp       Cm    Top Xtr Bot Xtr   Cpmin    Chinge    XCp    
 ------- -------- --------- --------- -------- ------- ------- -------- --------- ---------
 -10.000  -0.2709   0.01275   0.00667  -0.1924  0.2500  0.0080  -8.0874   0.0000  -0.4928
  -9.500  -0.2090   0.01228   0.00611  -0.1942  0.2500  0.0081  -7.3981   0.0000  -0.7179
  -9.000  -0.1469   0.01183   0.00559  -0.1958  0.2500  0.0082  -6.7346   0.0000  -1.1345
  -8.500  -0.0847   0.01142   0.00511  -0.1975  0.2500  0.0082  -6.0973   0.0000  -2.1663
  -8.000  -0.0222   0.01104   0.00466  -0.1991  0.2500  0.0083  -5.4870   0.0000  -9.0005
  -7.500   0.0403   0.01069   0.00424  -0.2007  0.2500  0.0083  -4.9039   0.0000   5.3858
  -7.000   0.1036   0.01031   0.00376  -0.2025  0.2500  0.0085  -4.3547   0.0000   2.2594
  -6.500   0.1670   0.00995   0.00332  -0.2042  0.2500  0.0090  -3.8373   0.0000   1.5042
  -6.000   0.2293   0.00972   0.00304  -0.2056  0.2500  0.0102  -3.3378   0.0000   1.1677
  -5.500   0.2909   0.00955   0.00286  -0.2068  0.2500  0.0115  -2.8966   0.0000   0.9762
  -5.000   0.3519   0.00943   0.00271  -0.2079  0.2500  0.0122  -2.5028   0.0000   0.8520
  -4.500   0.4129   0.00933   0.00258  -0.2089  0.2500  0.0128  -2.1315   0.0000   0.7646
  -4.000   0.4740   0.00922   0.00246  -0.2100  0.2500  0.0154  -1.7835   0.0000   0.6996
  -3.500   0.5345   0.00916   0.00238  -0.2109  0.2500  0.0185  -1.4526   0.0000   0.6495
  -3.000   0.5951   0.00908   0.00232  -0.2119  0.2500  0.0257  -1.1403   0.0000   0.6096
  -2.500   0.6561   0.00900   0.00228  -0.2130  0.2500  0.0435  -0.8568   0.0000   0.5770
  -2.000   0.7178   0.00886   0.00226  -0.2143  0.2500  0.0880  -0.8977   0.0000   0.5500
  -1.000   0.8423   0.00855   0.00231  -0.2174  0.2500  0.2500  -1.0037   0.0000   0.5077
  -0.500   0.9001   0.00865   0.00238  -0.2176  0.2500  0.2500  -1.0552   0.0000   0.4907
   0.000   0.9576   0.00876   0.00247  -0.2179  0.2500  0.2500  -1.1071   0.0000   0.4757
   0.500   1.0149   0.00887   0.00257  -0.2181  0.2500  0.2500  -1.1592   0.0000   0.4623
   1.000   1.0718   0.00899   0.00269  -0.2183  0.2500  0.2500  -1.2172   0.0000   0.4503
   1.500   1.1285   0.00912   0.00282  -0.2184  0.2500  0.2500  -1.2777   0.0000   0.4395
   2.000   1.1849   0.00925   0.00296  -0.2185  0.2500  0.2500  -1.3449   0.0000   0.4297
   2.500   1.2410   0.00938   0.00311  -0.2186  0.2500  0.2500  -1.4169   0.0000   0.4207
   3.000   1.2968   0.00953   0.00328  -0.2186  0.2500  0.2500  -1.5155   0.0000   0.4124
   3.500   1.3511   0.00976   0.00349  -0.2183  0.2428  0.2500  -1.6514   0.0000   0.4047
   4.000   1.4017   0.01023   0.00386  -0.2174  0.2182  0.2500  -1.7984   0.0000   0.3975
   4.500   1.4511   0.01076   0.00427  -0.2163  0.1934  0.2500  -1.9472   0.0000   0.3906
   5.000   1.4984   0.01138   0.00475  -0.2148  0.1663  0.2500  -2.0964   0.0000   0.3842
   5.500   1.5421   0.01218   0.00538  -0.2126  0.1313  0.2500  -2.2430   0.0000   0.3779
   6.000   1.5845   0.01299   0.00603  -0.2102  0.1032  0.2500  -2.3965   0.0000   0.3719
   6.500   1.6282   0.01362   0.00659  -0.2081  0.0882  0.2500  -2.5658   0.0000   0.3662
   7.000   1.6709   0.01423   0.00717  -0.2057  0.0803  0.2500  -2.7373   0.0000   0.3608
   7.500   1.7117   0.01481   0.00774  -0.2030  0.0720  0.2500  -2.9089   0.0000   0.3554
   8.000   1.7444   0.01534   0.00831  -0.1987  0.0700  0.2500  -3.0697   0.0000   0.3498
   8.500   1.7793   0.01606   0.00904  -0.1950  0.0657  0.2500  -3.2373   0.0000   0.3446
   9.000   1.8111   0.01693   0.00990  -0.1908  0.0596  0.2500  -3.4103   0.0000   0.3395
   9.500   1.8466   0.01771   0.01073  -0.1875  0.0567  0.2500  -3.6009   0.0000   0.3348
  10.000   1.8793   0.01857   0.01166  -0.1838  0.0560  0.2500  -3.7895   0.0000   0.3301
  10.500   1.9110   0.01958   0.01271  -0.1802  0.0543  0.2500  -3.9792   0.0000   0.3256
  11.000   1.9354   0.02103   0.01418  -0.1756  0.0495  0.2500  -4.1553   0.0000   0.3211
  11.500   1.9594   0.02259   0.01576  -0.1713  0.0450  0.2500  -4.3317   0.0000   0.3168
  12.000   1.9851   0.02416   0.01741  -0.1675  0.0437  0.2500  -4.6427   0.0000   0.3127
  12.500   2.0092   0.02597   0.01930  -0.1639  0.0424  0.2500  -5.0038   0.0000   0.3088
  13.000   2.0277   0.02831   0.02169  -0.1599  0.0393  0.2500  -5.3494   0.0000   0.3050
  13.500   2.0402   0.03119   0.02460  -0.1557  0.0342  0.2500  -5.6749   0.0000   0.3014
  14.000   2.0574   0.03389   0.02739  -0.1523  0.0330  0.2500  -6.0541   0.0000   0.2980
  14.500   2.0648   0.03761   0.03116  -0.1485  0.0290  0.2500  -6.4024   0.0000   0.2947
  15.000   2.0720   0.04154   0.03515  -0.1452  0.0255  0.2500  -6.7562   0.0000   0.2916
  15.500   2.0685   0.04660   0.04028  -0.1414  0.0209  0.2500  -7.0540   0.0000   0.2887
  16.000   2.0579   0.05274   0.04648  -0.1380  0.0153  0.2500  -7.3108   0.0000   0.2861
  16.500   2.0427   0.05971   0.05354  -0.1350  0.0101  0.2500  -7.5401   0.0000   0.2838
  17.000   2.0260   0.06718   0.06113  -0.1327  0.0071  0.2500  -7.7593   0.0000   0.2820
  17.500   2.0118   0.07458   0.06865  -0.1311  0.0055  0.2500  -7.9947   0.0000   0.2803
  18.000   1.9999   0.08196   0.07617  -0.1301  0.0043  0.2500  -8.2443   0.0000   0.2788
  18.500   1.9830   0.09016   0.08451  -0.1296  0.0033  0.2500  -8.4594   0.0000   0.2777
  19.000   1.9688   0.09809   0.09259  -0.1297  0.0027  0.2500  -8.6903   0.0000   0.2768
  19.500   1.9530   0.10629   0.10094  -0.1301  0.0024  0.2500  -8.9077   0.0000   0.2762
  20.000   1.9365   0.11483   0.10964  -0.1312  0.0022  0.2500  -9.1139   0.0000   0.2759


