xflr5 v6.42

 Calculated polar for: FX_63-137

 1 1 Reynolds number fixed          Mach number fixed         

 xtrf =   0.250 (top)        0.250 (bottom)
 Mach =   0.000     Re =     0.007 e 6     Ncrit =   5.000

  alpha     CL        CD       CDp       Cm    Top Xtr Bot Xtr   Cpmin    Chinge    XCp    
 ------- -------- --------- --------- -------- ------- ------- -------- --------- ---------
 -10.000  -0.2049   0.14826   0.12815  -0.0529  0.2500  0.2500  -1.4621   0.0000  -0.0385
  -9.500  -0.1998   0.14305   0.12316  -0.0533  0.2500  0.2500  -1.4867   0.0000  -0.0463
  -9.000  -0.1965   0.13797   0.11832  -0.0533  0.2500  0.2500  -1.5126   0.0000  -0.0498
  -8.500  -0.1956   0.13304   0.11367  -0.0529  0.2500  0.2500  -1.5402   0.0000  -0.0475
  -8.000  -0.1976   0.12830   0.10926  -0.0520  0.2500  0.2500  -1.5702   0.0000  -0.0380
  -7.500  -0.2031   0.12378   0.10509  -0.0504  0.2500  0.2500  -1.6030   0.0000  -0.0210
  -7.000  -0.2093   0.11917   0.10083  -0.0490  0.2500  0.2500  -1.6373   0.0000  -0.0049
  -6.500  -0.2162   0.11450   0.09651  -0.0478  0.2500  0.2500  -1.6734   0.0000   0.0105
  -6.000  -0.2234   0.10972   0.09206  -0.0469  0.2500  0.2500  -1.7114   0.0000   0.0236
  -5.500  -0.2292   0.10471   0.08733  -0.0467  0.2500  0.2500  -1.7500   0.0000   0.0315
  -5.000  -0.2314   0.09928   0.08212  -0.0477  0.2500  0.2500  -1.7886   0.0000   0.0305
  -4.500  -0.2270   0.09328   0.07617  -0.0503  0.2500  0.2500  -1.8246   0.0000   0.0158
  -4.000  -0.2113   0.08650   0.06934  -0.0552  0.2500  0.2500  -1.8560   0.0000  -0.0240
  -3.500  -0.1788   0.07893   0.06148  -0.0632  0.2500  0.2500  -1.9037   0.0000  -0.1174
  -3.000  -0.1232   0.07094   0.05283  -0.0742  0.2500  0.2500  -1.9321   0.0000  -0.3707
  -2.500  -0.0553   0.06423   0.04529  -0.0838  0.2500  0.2500  -1.9129   0.0000  -1.3019
  -2.000  -0.0003   0.06102   0.04123  -0.0872  0.2500  0.2500  -1.8086   0.0000  -310.3165
  -1.500   0.0479   0.06010   0.03924  -0.0886  0.2500  0.2500  -1.6416   0.0000   2.1289
  -1.000   0.0954   0.06016   0.03823  -0.0902  0.2500  0.2500  -1.4472   0.0000   1.2073
  -0.500   0.1426   0.06072   0.03778  -0.0920  0.2500  0.2500  -1.2436   0.0000   0.9006
   0.000   0.1890   0.06168   0.03788  -0.0939  0.2500  0.2500  -1.0460   0.0000   0.7487
   0.500   0.2338   0.06298   0.03843  -0.0956  0.2500  0.2500  -0.8738   0.0000   0.6588
   1.000   0.2773   0.06459   0.03934  -0.0973  0.2500  0.2500  -0.7066   0.0000   0.5991
   1.500   0.3193   0.06647   0.04068  -0.0988  0.2500  0.2500  -0.6600   0.0000   0.5566
   2.000   0.3596   0.06861   0.04234  -0.1003  0.2500  0.2500  -0.6854   0.0000   0.5249
   2.500   0.3984   0.07100   0.04437  -0.1016  0.2500  0.2500  -0.7122   0.0000   0.5002
   3.000   0.4357   0.07361   0.04670  -0.1028  0.2500  0.2500  -0.7379   0.0000   0.4804
   3.500   0.4716   0.07645   0.04931  -0.1040  0.2500  0.2500  -0.7648   0.0000   0.4641
   4.000   0.5064   0.07949   0.05221  -0.1051  0.2500  0.2500  -0.7912   0.0000   0.4504
   4.500   0.5401   0.08270   0.05536  -0.1061  0.2500  0.2500  -0.8200   0.0000   0.4388
   5.000   0.5730   0.08613   0.05877  -0.1072  0.2500  0.2500  -0.8481   0.0000   0.4287
   5.500   0.6049   0.08968   0.06234  -0.1083  0.2500  0.2500  -0.8786   0.0000   0.4199
   6.000   0.6362   0.09340   0.06613  -0.1093  0.2500  0.2500  -0.9104   0.0000   0.4121
   6.500   0.6668   0.09724   0.07015  -0.1104  0.2500  0.2500  -0.9520   0.0000   0.4051
   7.000   0.6967   0.10119   0.07424  -0.1114  0.2500  0.2500  -1.0111   0.0000   0.3988
   7.500   0.7262   0.10530   0.07853  -0.1125  0.2500  0.2500  -1.0704   0.0000   0.3931
   8.000   0.7552   0.10950   0.08294  -0.1136  0.2500  0.2500  -1.1361   0.0000   0.3878
   8.500   0.7840   0.11381   0.08763  -0.1147  0.2500  0.2500  -1.2034   0.0000   0.3830
   9.000   0.8126   0.11826   0.09237  -0.1159  0.2500  0.2500  -1.2697   0.0000   0.3786
   9.500   0.8409   0.12286   0.09731  -0.1172  0.2500  0.2500  -1.3346   0.0000   0.3745
  10.000   0.8688   0.12759   0.10241  -0.1184  0.2500  0.2500  -1.4078   0.0000   0.3707
  10.500   0.8961   0.13243   0.10779  -0.1198  0.2500  0.2500  -1.4795   0.0000   0.3672
  11.000   0.9228   0.13750   0.11330  -0.1212  0.2500  0.2500  -1.5479   0.0000   0.3642
  11.500   0.9487   0.14293   0.11920  -0.1229  0.2500  0.2500  -1.6115   0.0000   0.3615
  12.000   0.9737   0.14884   0.12560  -0.1248  0.2500  0.2500  -1.6699   0.0000   0.3594
  12.500   0.9975   0.15535   0.13274  -0.1271  0.2500  0.2500  -1.7290   0.0000   0.3578
  13.000   1.0197   0.16256   0.14046  -0.1297  0.2500  0.2500  -1.7769   0.0000   0.3569
  13.500   1.0402   0.17053   0.14893  -0.1328  0.2500  0.2500  -1.8116   0.0000   0.3565
  14.000   1.0589   0.17925   0.15813  -0.1362  0.2500  0.2500  -1.8322   0.0000   0.3568
  14.500   1.0760   0.18861   0.16805  -0.1401  0.2500  0.2500  -1.8487   0.0000   0.3575
  15.000   1.0914   0.19847   0.17832  -0.1442  0.2500  0.2500  -1.8565   0.0000   0.3588
  15.500   1.1053   0.20859   0.18882  -0.1487  0.2500  0.2500  -1.8534   0.0000   0.3604
  16.000   1.1180   0.21874   0.19932  -0.1533  0.2500  0.2500  -1.8435   0.0000   0.3622
  16.500   1.1296   0.22866   0.20957  -0.1581  0.2500  0.2500  -1.8395   0.0000   0.3642
  17.000   1.1410   0.23833   0.21964  -0.1629  0.2500  0.2500  -1.8316   0.0000   0.3662
  17.500   1.1526   0.24779   0.22942  -0.1678  0.2500  0.2500  -1.8273   0.0000   0.3681
  18.000   1.1644   0.25707   0.23899  -0.1727  0.2500  0.2500  -1.8288   0.0000   0.3699
  18.500   1.1766   0.26618   0.24840  -0.1776  0.2500  0.2500  -1.8340   0.0000   0.3715
  19.000   1.1890   0.27515   0.25767  -0.1826  0.2500  0.2500  -1.8497   0.0000   0.3731
  19.500   1.2018   0.28400   0.26682  -0.1876  0.2500  0.2500  -1.8794   0.0000   0.3746
  20.000   1.2148   0.29276   0.27596  -0.1926  0.2500  0.2500  -1.9179   0.0000   0.3759


