xflr5 v6.42

 Calculated polar for: FX_63-137

 1 1 Reynolds number fixed          Mach number fixed         

 xtrf =   0.250 (top)        0.250 (bottom)
 Mach =   0.000     Re =     0.075 e 6     Ncrit =   5.000

  alpha     CL        CD       CDp       Cm    Top Xtr Bot Xtr   Cpmin    Chinge    XCp    
 ------- -------- --------- --------- -------- ------- ------- -------- --------- ---------
 -10.000  -0.1100   0.10853   0.09871  -0.0893  0.2500  0.0491  -1.6928   0.0000  -0.6210
  -9.500  -0.1009   0.10165   0.09189  -0.0924  0.2500  0.0492  -1.7889   0.0000  -0.7275
  -9.000  -0.0873   0.09500   0.08529  -0.0941  0.2500  0.0486  -1.8212   0.0000  -0.8953
  -8.500  -0.0735   0.08869   0.07902  -0.0954  0.2500  0.0464  -1.8400   0.0000  -1.1249
  -8.000  -0.0679   0.08148   0.07190  -0.0983  0.2500  0.0441  -1.9568   0.0000  -1.2764
  -7.000  -0.0889   0.05175   0.04194  -0.1313  0.2500  0.0384  -2.9771   0.0000  -1.2786
  -6.500  -0.0426   0.04179   0.03106  -0.1459  0.2500  0.0384  -3.0584   0.0000  -3.2782
  -6.000   0.0211   0.03509   0.02349  -0.1548  0.2500  0.0396  -2.9453   0.0000   7.7937
  -5.500   0.0833   0.03166   0.01961  -0.1591  0.2500  0.0436  -2.6739   0.0000   2.2055
  -5.000   0.1478   0.02895   0.01620  -0.1623  0.2500  0.0496  -2.4280   0.0000   1.3711
  -4.500   0.2059   0.02655   0.01374  -0.1635  0.2500  0.0547  -2.1625   0.0000   1.0593
  -4.000   0.2661   0.02504   0.01203  -0.1648  0.2500  0.0664  -1.9516   0.0000   0.8797
  -3.500   0.3348   0.02358   0.01052  -0.1685  0.2500  0.0942  -1.7230   0.0000   0.7604
  -3.000   0.4155   0.02178   0.00925  -0.1758  0.2500  0.2500  -1.4540   0.0000   0.6777
  -2.500   0.4742   0.02183   0.00874  -0.1762  0.2500  0.2500  -1.1852   0.0000   0.6247
  -2.000   0.5317   0.02196   0.00846  -0.1766  0.2500  0.2500  -0.9185   0.0000   0.5839
  -1.500   0.5883   0.02214   0.00833  -0.1768  0.2500  0.2500  -0.8563   0.0000   0.5513
  -1.000   0.6440   0.02238   0.00831  -0.1769  0.2500  0.2500  -0.8986   0.0000   0.5245
  -0.500   0.6987   0.02267   0.00841  -0.1768  0.2500  0.2500  -0.9435   0.0000   0.5020
   0.000   0.7524   0.02300   0.00860  -0.1765  0.2500  0.2500  -0.9882   0.0000   0.4828
   0.500   0.8051   0.02338   0.00887  -0.1761  0.2500  0.2500  -1.0323   0.0000   0.4661
   1.000   0.8567   0.02381   0.00923  -0.1755  0.2500  0.2500  -1.0786   0.0000   0.4515
   1.500   0.9072   0.02428   0.00969  -0.1748  0.2500  0.2500  -1.1292   0.0000   0.4386
   2.000   0.9564   0.02480   0.01021  -0.1738  0.2500  0.2500  -1.1827   0.0000   0.4269
   2.500   1.0044   0.02537   0.01083  -0.1726  0.2500  0.2500  -1.2374   0.0000   0.4164
   3.000   1.0509   0.02600   0.01155  -0.1713  0.2500  0.2500  -1.2953   0.0000   0.4068
   3.500   1.0950   0.02669   0.01234  -0.1695  0.2500  0.2500  -1.3557   0.0000   0.3979
   4.000   1.1364   0.02745   0.01323  -0.1673  0.2500  0.2500  -1.4372   0.0000   0.3896
   4.500   1.1774   0.02830   0.01428  -0.1652  0.2500  0.2500  -1.5502   0.0000   0.3819
   5.000   1.2180   0.02924   0.01541  -0.1631  0.2500  0.2500  -1.6649   0.0000   0.3748
   5.500   1.2570   0.03030   0.01668  -0.1609  0.2500  0.2500  -1.7898   0.0000   0.3681
   6.000   1.2946   0.03147   0.01814  -0.1585  0.2500  0.2500  -1.9172   0.0000   0.3618
   6.500   1.3303   0.03277   0.01971  -0.1561  0.2500  0.2500  -2.0438   0.0000   0.3559
   7.000   1.3644   0.03423   0.02150  -0.1536  0.2500  0.2500  -2.1697   0.0000   0.3503
   7.500   1.3967   0.03585   0.02344  -0.1510  0.2500  0.2500  -2.2944   0.0000   0.3450
   8.000   1.4273   0.03764   0.02559  -0.1484  0.2500  0.2500  -2.4272   0.0000   0.3400
   8.500   1.4564   0.03962   0.02798  -0.1458  0.2500  0.2500  -2.5622   0.0000   0.3353
   9.000   1.4838   0.04180   0.03055  -0.1432  0.2500  0.2500  -2.6953   0.0000   0.3308
   9.500   1.5096   0.04416   0.03334  -0.1406  0.2500  0.2500  -2.8258   0.0000   0.3265
  10.000   1.5343   0.04669   0.03635  -0.1381  0.2500  0.2500  -2.9543   0.0000   0.3224
  10.500   1.5587   0.04929   0.03944  -0.1355  0.2500  0.2500  -3.0813   0.0000   0.3184
  11.000   1.5820   0.05202   0.04263  -0.1328  0.2479  0.2500  -3.2186   0.0000   0.3145
  11.500   1.5733   0.05773   0.04843  -0.1292  0.2179  0.2500  -3.2869   0.0000   0.3116
  12.000   1.5630   0.06402   0.05476  -0.1263  0.1918  0.2500  -3.3475   0.0000   0.3092
  12.500   1.5544   0.07043   0.06123  -0.1239  0.1718  0.2500  -3.4080   0.0000   0.3071
  13.000   1.5490   0.07676   0.06764  -0.1220  0.1560  0.2500  -3.4725   0.0000   0.3051
  13.500   1.5506   0.08243   0.07351  -0.1204  0.1439  0.2500  -3.5490   0.0000   0.3029
  14.000   1.5513   0.08818   0.07932  -0.1192  0.1337  0.2500  -3.6379   0.0000   0.3010
  14.500   1.5572   0.09338   0.08476  -0.1180  0.1254  0.2500  -3.7370   0.0000   0.2988
  15.000   1.5617   0.09897   0.09067  -0.1174  0.1183  0.2500  -3.8768   0.0000   0.2971
  15.500   1.5718   0.10354   0.09538  -0.1164  0.1127  0.2500  -4.1202   0.0000   0.2949
  16.000   1.5857   0.10765   0.09971  -0.1153  0.1081  0.2500  -4.3811   0.0000   0.2924
  16.500   1.5783   0.11563   0.10820  -0.1167  0.1042  0.2500  -4.5206   0.0000   0.2925
  17.000   1.5659   0.12458   0.11758  -0.1192  0.1001  0.2500  -4.6278   0.0000   0.2935
  17.500   1.5532   0.13383   0.12718  -0.1224  0.0963  0.2500  -4.7262   0.0000   0.2951
  18.000   1.5469   0.14207   0.13573  -0.1255  0.0932  0.2500  -4.8572   0.0000   0.2961
  18.500   1.5451   0.14951   0.14339  -0.1280  0.0901  0.2500  -5.0081   0.0000   0.2966
  19.000   1.3175   0.22520   0.21942  -0.1778  0.0852  0.2500  -3.0280   0.0000   0.3509
  19.500   1.3105   0.23958   0.23386  -0.1873  0.0799  0.2500  -2.9277   0.0000   0.3582
  20.000   1.3181   0.24830   0.24272  -0.1929  0.0767  0.2500  -2.9929   0.0000   0.3605


