xflr5 v6.42

 Calculated polar for: FX_60-126

 1 1 Reynolds number fixed          Mach number fixed         

 xtrf =   0.250 (top)        0.250 (bottom)
 Mach =   0.000     Re =     0.055 e 6     Ncrit =   5.000

  alpha     CL        CD       CDp       Cm    Top Xtr Bot Xtr   Cpmin    Chinge    XCp    
 ------- -------- --------- --------- -------- ------- ------- -------- --------- ---------
 -10.000  -0.3158   0.11052   0.10061  -0.0452  0.2500  0.0327  -1.9159   0.0000   0.0914
  -9.500  -0.3132   0.10118   0.09137  -0.0497  0.2500  0.0307  -2.0967   0.0000   0.0760
  -9.000  -0.3236   0.08682   0.07708  -0.0587  0.2500  0.0280  -2.5931   0.0000   0.0537
  -8.500  -0.3248   0.07700   0.06734  -0.0646  0.2500  0.0274  -2.7474   0.0000   0.0369
  -8.000  -0.3369   0.06559   0.05591  -0.0745  0.2500  0.0267  -2.9898   0.0000   0.0159
  -7.500  -0.3337   0.05374   0.04362  -0.0898  0.2500  0.0259  -3.1971   0.0000  -0.0313
  -7.000  -0.3053   0.04536   0.03445  -0.0975  0.2500  0.0253  -3.2394   0.0000  -0.0818
  -6.500  -0.2617   0.03932   0.02758  -0.1010  0.2500  0.0249  -3.1717   0.0000  -0.1494
  -6.000  -0.2129   0.03514   0.02269  -0.1019  0.2500  0.0249  -3.0275   0.0000  -0.2436
  -5.500  -0.1632   0.03217   0.01925  -0.1016  0.2500  0.0252  -2.8366   0.0000  -0.3901
  -5.000  -0.1109   0.02977   0.01643  -0.1019  0.2500  0.0259  -2.6185   0.0000  -0.6917
  -4.500  -0.0540   0.02764   0.01384  -0.1036  0.2500  0.0273  -2.3817   0.0000  -1.7097
  -4.000   0.0063   0.02574   0.01148  -0.1058  0.2500  0.0307  -2.1306   0.0000  17.3243
  -3.500   0.0709   0.02290   0.00927  -0.1102  0.2500  0.1654  -1.8934   0.0000   1.8279
  -3.000   0.1305   0.02232   0.00842  -0.1110  0.2500  0.2500  -1.6589   0.0000   1.1106
  -2.500   0.1879   0.02224   0.00773  -0.1110  0.2500  0.2500  -1.3811   0.0000   0.8460
  -2.000   0.2447   0.02222   0.00723  -0.1111  0.2500  0.2500  -1.0725   0.0000   0.7066
  -1.500   0.3013   0.02225   0.00688  -0.1112  0.2500  0.2500  -0.7520   0.0000   0.6201
  -1.000   0.3576   0.02234   0.00668  -0.1112  0.2500  0.2500  -0.6585   0.0000   0.5611
  -0.500   0.4134   0.02248   0.00659  -0.1113  0.2500  0.2500  -0.7013   0.0000   0.5183
   0.000   0.4686   0.02268   0.00663  -0.1112  0.2500  0.2500  -0.7443   0.0000   0.4857
   0.500   0.5234   0.02292   0.00676  -0.1111  0.2500  0.2500  -0.7946   0.0000   0.4600
   1.000   0.5776   0.02320   0.00700  -0.1109  0.2500  0.2500  -0.8480   0.0000   0.4391
   1.500   0.6313   0.02354   0.00733  -0.1106  0.2500  0.2500  -0.9079   0.0000   0.4218
   2.000   0.6842   0.02392   0.00779  -0.1102  0.2500  0.2500  -0.9751   0.0000   0.4072
   2.500   0.7365   0.02434   0.00830  -0.1098  0.2500  0.2500  -1.0542   0.0000   0.3945
   3.000   0.7881   0.02482   0.00891  -0.1092  0.2500  0.2500  -1.1543   0.0000   0.3835
   3.500   0.8389   0.02535   0.00966  -0.1085  0.2500  0.2500  -1.2569   0.0000   0.3738
   4.000   0.8888   0.02594   0.01045  -0.1077  0.2500  0.2500  -1.3606   0.0000   0.3651
   4.500   0.9378   0.02660   0.01135  -0.1068  0.2500  0.2500  -1.4793   0.0000   0.3572
   5.000   0.9857   0.02732   0.01246  -0.1058  0.2500  0.2500  -1.5991   0.0000   0.3500
   5.500   1.0324   0.02813   0.01361  -0.1046  0.2500  0.2500  -1.7523   0.0000   0.3434
   6.000   1.0778   0.02902   0.01492  -0.1032  0.2500  0.2500  -1.9392   0.0000   0.3373
   6.500   1.1216   0.03001   0.01635  -0.1016  0.2500  0.2500  -2.1279   0.0000   0.3315
   7.000   1.1636   0.03112   0.01796  -0.0998  0.2500  0.2500  -2.3172   0.0000   0.3260
   7.500   1.2038   0.03236   0.01972  -0.0978  0.2500  0.2500  -2.5058   0.0000   0.3208
   8.000   1.2413   0.03375   0.02166  -0.0955  0.2500  0.2500  -2.6911   0.0000   0.3158
   8.500   1.2767   0.03532   0.02385  -0.0928  0.2500  0.2500  -2.8719   0.0000   0.3108
   9.000   1.3161   0.03711   0.02625  -0.0905  0.2500  0.2500  -3.0572   0.0000   0.3062
   9.500   1.3416   0.03970   0.02904  -0.0869  0.2307  0.2500  -3.2119   0.0000   0.3014
  10.000   1.3536   0.04297   0.03248  -0.0827  0.2044  0.2500  -3.3371   0.0000   0.2970
  10.500   1.3615   0.04670   0.03635  -0.0790  0.1817  0.2500  -3.5666   0.0000   0.2931
  11.000   1.3693   0.05073   0.04040  -0.0758  0.1635  0.2500  -3.8870   0.0000   0.2896
  11.500   1.3727   0.05541   0.04547  -0.0733  0.1468  0.2500  -4.1770   0.0000   0.2867
  12.000   1.3736   0.06062   0.05097  -0.0713  0.1325  0.2500  -4.4554   0.0000   0.2844
  12.500   1.3758   0.06580   0.05629  -0.0696  0.1215  0.2500  -4.7502   0.0000   0.2821
  13.000   1.3777   0.07183   0.06288  -0.0682  0.1127  0.2500  -5.0163   0.0000   0.2802
  13.500   1.3734   0.07851   0.06994  -0.0677  0.1047  0.2500  -5.2465   0.0000   0.2790
  14.000   1.3694   0.08515   0.07676  -0.0674  0.0979  0.2500  -5.4886   0.0000   0.2780
  14.500   1.3421   0.09619   0.08844  -0.0700  0.0934  0.2500  -5.4972   0.0000   0.2801
  15.000   1.3009   0.11073   0.10350  -0.0754  0.0906  0.2500  -5.3473   0.0000   0.2851
  15.500   1.1720   0.14872   0.14181  -0.0969  0.0907  0.2500  -4.1557   0.0000   0.3099
  16.000   1.1125   0.17652   0.16948  -0.1122  0.0857  0.2500  -3.4680   0.0000   0.3284
  16.500   1.1076   0.18885   0.18186  -0.1182  0.0829  0.2500  -3.4386   0.0000   0.3336
  17.000   1.1095   0.19957   0.19266  -0.1232  0.0812  0.2500  -3.4808   0.0000   0.3373
  17.500   1.1127   0.21065   0.20382  -0.1285  0.0804  0.2500  -3.5095   0.0000   0.3410
  18.000   1.1183   0.22083   0.21407  -0.1333  0.0786  0.2500  -3.5768   0.0000   0.3440
  18.500   1.1131   0.23510   0.22834  -0.1429  0.0755  0.2500  -3.3833   0.0000   0.3527
  19.000   1.1197   0.24564   0.23897  -0.1490  0.0751  0.2500  -3.3817   0.0000   0.3566
  19.500   1.1278   0.25550   0.24894  -0.1549  0.0749  0.2500  -3.3864   0.0000   0.3601
  20.000   1.1366   0.26374   0.25732  -0.1612  0.0693  0.2500  -3.4017   0.0000   0.3636


