xflr5 v6.42

 Calculated polar for: FX_63-137

 1 1 Reynolds number fixed          Mach number fixed         

 xtrf =   0.250 (top)        0.250 (bottom)
 Mach =   0.000     Re =     0.150 e 6     Ncrit =   5.000

  alpha     CL        CD       CDp       Cm    Top Xtr Bot Xtr   Cpmin    Chinge    XCp    
 ------- -------- --------- --------- -------- ------- ------- -------- --------- ---------
  -9.500  -0.0870   0.08942   0.08148  -0.0993  0.2500  0.0228  -2.2405   0.0000  -0.9690
  -9.000  -0.0807   0.08169   0.07379  -0.1030  0.2500  0.0227  -2.4038   0.0000  -1.1052
  -8.500  -0.0805   0.07246   0.06464  -0.1081  0.2500  0.0226  -2.6669   0.0000  -1.1670
  -8.000  -0.1067   0.05627   0.04854  -0.1197  0.2500  0.0225  -3.3342   0.0000  -0.9261
  -7.500  -0.0911   0.03791   0.02923  -0.1531  0.2500  0.0235  -3.8459   0.0000  -1.4892
  -7.000  -0.0374   0.03352   0.02440  -0.1601  0.2500  0.0251  -3.5595   0.0000  -4.1690
  -6.500   0.0288   0.02806   0.01804  -0.1679  0.2500  0.0257  -3.3988   0.0000   6.2447
  -6.000   0.0934   0.02480   0.01418  -0.1720  0.2500  0.0271  -3.1366   0.0000   2.1390
  -5.500   0.1558   0.02259   0.01153  -0.1744  0.2500  0.0291  -2.8408   0.0000   1.3949
  -5.000   0.2185   0.02090   0.00968  -0.1767  0.2500  0.0321  -2.5010   0.0000   1.0757
  -4.500   0.2811   0.02000   0.00863  -0.1788  0.2500  0.0385  -2.1681   0.0000   0.8976
  -4.000   0.3494   0.01887   0.00739  -0.1823  0.2500  0.0467  -1.9019   0.0000   0.7801
  -3.500   0.4184   0.01801   0.00653  -0.1859  0.2500  0.0758  -1.6229   0.0000   0.7001
  -3.000   0.4928   0.01689   0.00596  -0.1913  0.2500  0.2494  -1.3148   0.0000   0.6422
  -2.500   0.5508   0.01697   0.00571  -0.1916  0.2500  0.2500  -1.0386   0.0000   0.6005
  -2.000   0.6079   0.01710   0.00558  -0.1917  0.2500  0.2500  -0.8533   0.0000   0.5669
  -1.500   0.6644   0.01726   0.00554  -0.1918  0.2500  0.2500  -0.8990   0.0000   0.5392
  -1.000   0.7202   0.01746   0.00558  -0.1917  0.2500  0.2500  -0.9447   0.0000   0.5159
  -0.500   0.7753   0.01768   0.00568  -0.1915  0.2500  0.2500  -0.9904   0.0000   0.4959
   0.000   0.8299   0.01792   0.00584  -0.1913  0.2500  0.2500  -1.0361   0.0000   0.4786
   0.500   0.8838   0.01820   0.00606  -0.1909  0.2500  0.2500  -1.0844   0.0000   0.4634
   1.000   0.9369   0.01850   0.00634  -0.1905  0.2500  0.2500  -1.1338   0.0000   0.4499
   1.500   0.9894   0.01883   0.00667  -0.1899  0.2500  0.2500  -1.1882   0.0000   0.4378
   2.000   1.0411   0.01919   0.00705  -0.1892  0.2500  0.2500  -1.2446   0.0000   0.4269
   2.500   1.0918   0.01958   0.00750  -0.1883  0.2500  0.2500  -1.3047   0.0000   0.4170
   3.000   1.1417   0.02000   0.00798  -0.1873  0.2500  0.2500  -1.3699   0.0000   0.4078
   3.500   1.1903   0.02045   0.00853  -0.1861  0.2500  0.2500  -1.4474   0.0000   0.3994
   4.000   1.2377   0.02095   0.00916  -0.1847  0.2500  0.2500  -1.5700   0.0000   0.3916
   4.500   1.2837   0.02149   0.00983  -0.1830  0.2500  0.2500  -1.6949   0.0000   0.3842
   5.000   1.3275   0.02207   0.01060  -0.1810  0.2500  0.2500  -1.8316   0.0000   0.3772
   5.500   1.3673   0.02270   0.01140  -0.1783  0.2500  0.2500  -1.9655   0.0000   0.3705
   6.000   1.4074   0.02341   0.01231  -0.1757  0.2500  0.2500  -2.1021   0.0000   0.3642
   6.500   1.4471   0.02421   0.01336  -0.1732  0.2500  0.2500  -2.2407   0.0000   0.3582
   7.000   1.4857   0.02509   0.01447  -0.1706  0.2500  0.2500  -2.3828   0.0000   0.3526
   7.500   1.5226   0.02608   0.01572  -0.1678  0.2500  0.2500  -2.5358   0.0000   0.3471
   8.000   1.5580   0.02718   0.01713  -0.1650  0.2500  0.2500  -2.6883   0.0000   0.3419
   8.500   1.5918   0.02841   0.01866  -0.1620  0.2500  0.2500  -2.8399   0.0000   0.3369
   9.000   1.6238   0.02979   0.02036  -0.1589  0.2500  0.2500  -2.9895   0.0000   0.3321
   9.500   1.6490   0.03166   0.02252  -0.1552  0.2402  0.2500  -3.1270   0.0000   0.3275
  10.000   1.6546   0.03498   0.02584  -0.1499  0.2083  0.2500  -3.2336   0.0000   0.3230
  10.500   1.6547   0.03906   0.02988  -0.1448  0.1786  0.2500  -3.3332   0.0000   0.3189
  11.000   1.6530   0.04366   0.03447  -0.1403  0.1529  0.2500  -3.4269   0.0000   0.3153
  11.500   1.6511   0.04855   0.03944  -0.1365  0.1336  0.2500  -3.5182   0.0000   0.3120
  12.000   1.6516   0.05350   0.04452  -0.1333  0.1207  0.2500  -3.6130   0.0000   0.3090
  12.500   1.6467   0.05930   0.05042  -0.1304  0.1113  0.2500  -3.6926   0.0000   0.3065
  13.000   1.6497   0.06443   0.05579  -0.1282  0.1053  0.2500  -3.7886   0.0000   0.3039
  13.500   1.6511   0.06989   0.06148  -0.1263  0.0999  0.2500  -3.8905   0.0000   0.3016
  14.000   1.6496   0.07589   0.06767  -0.1248  0.0952  0.2500  -3.9860   0.0000   0.2996
  14.500   1.6464   0.08205   0.07393  -0.1233  0.0904  0.2500  -4.1633   0.0000   0.2977
  15.000   1.6526   0.08726   0.07943  -0.1223  0.0873  0.2500  -4.4037   0.0000   0.2957
  15.500   1.6568   0.09276   0.08523  -0.1217  0.0839  0.2500  -4.6376   0.0000   0.2939
  16.000   1.6603   0.09839   0.09112  -0.1213  0.0809  0.2500  -4.8703   0.0000   0.2923
  16.500   1.6632   0.10413   0.09712  -0.1211  0.0782  0.2500  -5.1026   0.0000   0.2909
  17.000   1.6650   0.11001   0.10318  -0.1213  0.0755  0.2500  -5.3306   0.0000   0.2897
  17.500   1.6726   0.11453   0.10780  -0.1207  0.0720  0.2500  -5.6207   0.0000   0.2877
  18.000   1.6704   0.12151   0.11518  -0.1223  0.0703  0.2500  -5.8450   0.0000   0.2875
  18.500   1.6664   0.12877   0.12283  -0.1243  0.0684  0.2500  -6.0527   0.0000   0.2876
  19.000   1.6594   0.13678   0.13119  -0.1272  0.0661  0.2500  -6.2348   0.0000   0.2883
  19.500   1.6505   0.14535   0.14012  -0.1310  0.0637  0.2500  -6.3987   0.0000   0.2897
  20.000   1.6419   0.15412   0.14914  -0.1355  0.0611  0.2500  -6.5607   0.0000   0.2915


