xflr5 v6.42

 Calculated polar for: FX_60-126

 1 1 Reynolds number fixed          Mach number fixed         

 xtrf =   0.250 (top)        0.250 (bottom)
 Mach =   0.000     Re =     0.005 e 6     Ncrit =   5.000

  alpha     CL        CD       CDp       Cm    Top Xtr Bot Xtr   Cpmin    Chinge    XCp    
 ------- -------- --------- --------- -------- ------- ------- -------- --------- ---------
 -10.000  -0.3595   0.14860   0.12563  -0.0285  0.2500  0.2500  -2.0854   0.0000   0.1578
  -9.500  -0.3526   0.14163   0.11894  -0.0303  0.2500  0.2500  -2.1600   0.0000   0.1512
  -9.000  -0.3468   0.13459   0.11219  -0.0321  0.2500  0.2500  -2.2403   0.0000   0.1451
  -8.500  -0.3423   0.12752   0.10543  -0.0336  0.2500  0.2500  -2.3265   0.0000   0.1398
  -8.000  -0.3391   0.12044   0.09866  -0.0350  0.2500  0.2500  -2.4175   0.0000   0.1353
  -7.500  -0.3349   0.11309   0.09143  -0.0366  0.2500  0.2500  -2.5114   0.0000   0.1296
  -7.000  -0.3298   0.10558   0.08417  -0.0383  0.2500  0.2500  -2.6033   0.0000   0.1233
  -6.500  -0.3231   0.09804   0.07680  -0.0398  0.2500  0.2500  -2.6857   0.0000   0.1165
  -6.000  -0.3139   0.09068   0.06948  -0.0412  0.2500  0.2500  -2.7472   0.0000   0.1087
  -5.500  -0.3011   0.08388   0.06250  -0.0422  0.2500  0.2500  -2.7686   0.0000   0.1001
  -5.000  -0.2846   0.07815   0.05634  -0.0423  0.2500  0.2500  -2.7328   0.0000   0.0916
  -4.500  -0.2647   0.07363   0.05115  -0.0419  0.2500  0.2500  -2.6387   0.0000   0.0823
  -4.000  -0.2410   0.07005   0.04675  -0.0414  0.2500  0.2500  -2.4972   0.0000   0.0689
  -3.500  -0.2134   0.06708   0.04288  -0.0413  0.2500  0.2500  -2.3210   0.0000   0.0469
  -3.000  -0.1815   0.06464   0.03933  -0.0419  0.2500  0.2500  -2.1161   0.0000   0.0093
  -2.500  -0.1458   0.06281   0.03647  -0.0429  0.2500  0.2500  -1.8868   0.0000  -0.0547
  -2.000  -0.1068   0.06149   0.03413  -0.0442  0.2500  0.2500  -1.6409   0.0000  -0.1761
  -1.500  -0.0651   0.06064   0.03228  -0.0458  0.2500  0.2500  -1.3856   0.0000  -0.4691
  -1.000  -0.0218   0.06023   0.03081  -0.0476  0.2500  0.2500  -1.1274   0.0000  -1.9698
  -0.500   0.0227   0.06023   0.02991  -0.0494  0.2500  0.2500  -0.8719   0.0000   2.4498
   0.000   0.0671   0.06062   0.02947  -0.0511  0.2500  0.2500  -0.6390   0.0000   1.0148
   0.500   0.1104   0.06134   0.02941  -0.0525  0.2500  0.2500  -0.4984   0.0000   0.7250
   1.000   0.1526   0.06235   0.02980  -0.0538  0.2500  0.2500  -0.5273   0.0000   0.6003
   1.500   0.1938   0.06364   0.03052  -0.0550  0.2500  0.2500  -0.5569   0.0000   0.5305
   2.000   0.2335   0.06519   0.03168  -0.0561  0.2500  0.2500  -0.5866   0.0000   0.4861
   2.500   0.2721   0.06700   0.03320  -0.0572  0.2500  0.2500  -0.6180   0.0000   0.4553
   3.000   0.3095   0.06905   0.03500  -0.0582  0.2500  0.2500  -0.6540   0.0000   0.4326
   3.500   0.3458   0.07134   0.03717  -0.0592  0.2500  0.2500  -0.6884   0.0000   0.4151
   4.000   0.3811   0.07388   0.03967  -0.0602  0.2500  0.2500  -0.7326   0.0000   0.4014
   4.500   0.4155   0.07666   0.04248  -0.0612  0.2500  0.2500  -0.7764   0.0000   0.3904
   5.000   0.4492   0.07969   0.04564  -0.0623  0.2500  0.2500  -0.8215   0.0000   0.3813
   5.500   0.4822   0.08294   0.04901  -0.0634  0.2500  0.2500  -0.8761   0.0000   0.3736
   6.000   0.5149   0.08647   0.05268  -0.0647  0.2500  0.2500  -0.9327   0.0000   0.3673
   6.500   0.5470   0.09021   0.05662  -0.0660  0.2500  0.2500  -0.9880   0.0000   0.3618
   7.000   0.5783   0.09414   0.06091  -0.0673  0.2500  0.2500  -1.0418   0.0000   0.3570
   7.500   0.6089   0.09830   0.06535  -0.0687  0.2500  0.2500  -1.1042   0.0000   0.3529
   8.000   0.6390   0.10271   0.07010  -0.0701  0.2500  0.2500  -1.1654   0.0000   0.3492
   8.500   0.6687   0.10737   0.07516  -0.0716  0.2500  0.2500  -1.2243   0.0000   0.3460
   9.000   0.6979   0.11225   0.08072  -0.0731  0.2500  0.2500  -1.2943   0.0000   0.3431
   9.500   0.7262   0.11731   0.08630  -0.0746  0.2500  0.2500  -1.3618   0.0000   0.3406
  10.000   0.7532   0.12270   0.09235  -0.0762  0.2500  0.2500  -1.4430   0.0000   0.3384
  10.500   0.7791   0.12852   0.09876  -0.0780  0.2500  0.2500  -1.5304   0.0000   0.3369
  11.000   0.8036   0.13483   0.10568  -0.0801  0.2500  0.2500  -1.6093   0.0000   0.3358
  11.500   0.8266   0.14169   0.11315  -0.0825  0.2500  0.2500  -1.6780   0.0000   0.3354
  12.000   0.8479   0.14912   0.12127  -0.0853  0.2500  0.2500  -1.7349   0.0000   0.3355
  12.500   0.8678   0.15708   0.12979  -0.0883  0.2500  0.2500  -1.7797   0.0000   0.3361
  13.000   0.8863   0.16551   0.13876  -0.0916  0.2500  0.2500  -1.8125   0.0000   0.3371
  13.500   0.9034   0.17443   0.14819  -0.0951  0.2500  0.2500  -1.8335   0.0000   0.3384
  14.000   0.9193   0.18366   0.15789  -0.0988  0.2500  0.2500  -1.8431   0.0000   0.3401
  14.500   0.9341   0.19307   0.16788  -0.1027  0.2500  0.2500  -1.8425   0.0000   0.3420
  15.000   0.9480   0.20253   0.17775  -0.1068  0.2500  0.2500  -1.8328   0.0000   0.3441
  15.500   0.9608   0.21185   0.18745  -0.1110  0.2500  0.2500  -1.8344   0.0000   0.3463
  16.000   0.9734   0.22108   0.19703  -0.1153  0.2500  0.2500  -1.8304   0.0000   0.3485
  16.500   0.9860   0.23021   0.20651  -0.1196  0.2500  0.2500  -1.8221   0.0000   0.3506
  17.000   0.9986   0.23923   0.21585  -0.1240  0.2500  0.2500  -1.8384   0.0000   0.3527
  17.500   1.0114   0.24812   0.22518  -0.1284  0.2500  0.2500  -1.9114   0.0000   0.3547
  18.000   1.0244   0.25690   0.23428  -0.1328  0.2500  0.2500  -1.9915   0.0000   0.3567
  18.500   1.0376   0.26559   0.24326  -0.1373  0.2500  0.2500  -2.0826   0.0000   0.3585
  19.000   1.0510   0.27418   0.25215  -0.1418  0.2500  0.2500  -2.1721   0.0000   0.3602
  19.500   1.0648   0.28284   0.26111  -0.1464  0.2500  0.2500  -2.2595   0.0000   0.3619
  20.000   1.0788   0.29153   0.27009  -0.1510  0.2500  0.2500  -2.3442   0.0000   0.3635


