xflr5 v6.42

 Calculated polar for: FX_60-126

 1 1 Reynolds number fixed          Mach number fixed         

 xtrf =   0.250 (top)        0.250 (bottom)
 Mach =   0.000     Re =     0.150 e 6     Ncrit =   5.000

  alpha     CL        CD       CDp       Cm    Top Xtr Bot Xtr   Cpmin    Chinge    XCp    
 ------- -------- --------- --------- -------- ------- ------- -------- --------- ---------
 -10.000  -0.3134   0.10318   0.09609  -0.0498  0.2500  0.0272  -2.0531   0.0000   0.0752
  -9.500  -0.3135   0.09125   0.08419  -0.0550  0.2500  0.0203  -2.3921   0.0000   0.0588
  -9.000  -0.3110   0.08275   0.07575  -0.0591  0.2500  0.0190  -2.4843   0.0000   0.0448
  -8.500  -0.3240   0.06773   0.06080  -0.0692  0.2500  0.0175  -2.9287   0.0000   0.0219
  -8.000  -0.3483   0.04852   0.04115  -0.0952  0.2500  0.0165  -3.5257   0.0000  -0.0365
  -7.000  -0.2720   0.03372   0.02451  -0.1105  0.2500  0.0141  -3.6107   0.0000  -0.1704
  -6.500  -0.2208   0.02922   0.01939  -0.1130  0.2500  0.0136  -3.4233   0.0000  -0.2779
  -6.000  -0.1663   0.02592   0.01556  -0.1143  0.2500  0.0132  -3.1932   0.0000  -0.4564
  -5.500  -0.1108   0.02342   0.01272  -0.1150  0.2500  0.0128  -2.9331   0.0000  -0.8131
  -5.000  -0.0543   0.02147   0.01055  -0.1157  0.2500  0.0126  -2.6487   0.0000  -1.9284
  -4.500   0.0044   0.01992   0.00877  -0.1170  0.2500  0.0125  -2.3441   0.0000  27.3967
  -4.000   0.0648   0.01874   0.00731  -0.1184  0.2500  0.0125  -2.0294   0.0000   2.1069
  -3.500   0.1252   0.01787   0.00615  -0.1196  0.2500  0.0128  -1.7146   0.0000   1.2175
  -3.000   0.1852   0.01727   0.00526  -0.1205  0.2500  0.0133  -1.4086   0.0000   0.9073
  -2.500   0.2446   0.01687   0.00461  -0.1211  0.2500  0.0144  -1.1175   0.0000   0.7489
  -2.000   0.3078   0.01561   0.00391  -0.1235  0.2500  0.1981  -0.8523   0.0000   0.6533
  -1.500   0.3661   0.01543   0.00371  -0.1240  0.2500  0.2500  -0.6565   0.0000   0.5893
  -1.000   0.4232   0.01551   0.00360  -0.1240  0.2500  0.2500  -0.7008   0.0000   0.5427
  -0.500   0.4799   0.01562   0.00359  -0.1240  0.2500  0.2500  -0.7454   0.0000   0.5073
   0.000   0.5363   0.01575   0.00364  -0.1239  0.2500  0.2500  -0.7903   0.0000   0.4794
   0.500   0.5924   0.01590   0.00374  -0.1239  0.2500  0.2500  -0.8415   0.0000   0.4568
   1.000   0.6481   0.01608   0.00390  -0.1237  0.2500  0.2500  -0.8988   0.0000   0.4381
   1.500   0.7034   0.01628   0.00414  -0.1235  0.2500  0.2500  -0.9650   0.0000   0.4223
   2.000   0.7584   0.01650   0.00441  -0.1233  0.2500  0.2500  -1.0426   0.0000   0.4087
   2.500   0.8130   0.01675   0.00473  -0.1230  0.2500  0.2500  -1.1383   0.0000   0.3969
   3.000   0.8672   0.01703   0.00513  -0.1227  0.2500  0.2500  -1.2456   0.0000   0.3865
   3.500   0.9210   0.01733   0.00555  -0.1223  0.2500  0.2500  -1.3546   0.0000   0.3772
   4.000   0.9743   0.01766   0.00603  -0.1218  0.2500  0.2500  -1.4786   0.0000   0.3689
   4.500   1.0271   0.01802   0.00662  -0.1213  0.2500  0.2500  -1.6065   0.0000   0.3614
   5.000   1.0793   0.01842   0.00724  -0.1206  0.2500  0.2500  -1.7917   0.0000   0.3545
   5.500   1.1308   0.01886   0.00794  -0.1199  0.2500  0.2500  -1.9957   0.0000   0.3481
   6.000   1.1815   0.01935   0.00871  -0.1190  0.2500  0.2500  -2.2041   0.0000   0.3422
   6.500   1.2313   0.01989   0.00957  -0.1180  0.2500  0.2500  -2.4163   0.0000   0.3367
   7.000   1.2801   0.02049   0.01053  -0.1168  0.2500  0.2500  -2.6310   0.0000   0.3314
   7.500   1.3168   0.02188   0.01184  -0.1141  0.2104  0.2500  -2.8258   0.0000   0.3261
   8.000   1.3467   0.02365   0.01340  -0.1105  0.1643  0.2500  -3.0097   0.0000   0.3208
   8.500   1.3758   0.02538   0.01505  -0.1069  0.1290  0.2500  -3.1945   0.0000   0.3157
   9.000   1.4022   0.02693   0.01671  -0.1028  0.1136  0.2500  -3.3744   0.0000   0.3106
   9.500   1.4251   0.02875   0.01866  -0.0985  0.0983  0.2500  -3.5477   0.0000   0.3056
  10.000   1.4438   0.03103   0.02096  -0.0943  0.0806  0.2500  -3.9468   0.0000   0.3010
  10.500   1.4650   0.03326   0.02342  -0.0909  0.0702  0.2500  -4.3743   0.0000   0.2969
  11.000   1.4806   0.03609   0.02641  -0.0875  0.0608  0.2500  -4.7787   0.0000   0.2931
  11.500   1.4955   0.03917   0.02976  -0.0846  0.0535  0.2500  -5.1853   0.0000   0.2896
  12.000   1.5049   0.04295   0.03373  -0.0819  0.0472  0.2500  -5.5631   0.0000   0.2866
  12.500   1.5141   0.04694   0.03802  -0.0797  0.0433  0.2500  -5.9410   0.0000   0.2838
  13.000   1.5204   0.05147   0.04286  -0.0779  0.0397  0.2500  -6.2999   0.0000   0.2815
  13.500   1.5223   0.05666   0.04835  -0.0765  0.0368  0.2500  -6.6259   0.0000   0.2795
  14.000   1.5180   0.06288   0.05480  -0.0759  0.0331  0.2500  -6.9042   0.0000   0.2782
  14.500   1.5121   0.06968   0.06187  -0.0759  0.0297  0.2500  -7.1626   0.0000   0.2773
  15.000   1.5006   0.07764   0.07007  -0.0767  0.0265  0.2500  -7.3658   0.0000   0.2772
  15.500   1.4822   0.08720   0.07992  -0.0788  0.0232  0.2500  -7.4958   0.0000   0.2782
  16.000   1.4767   0.09510   0.08823  -0.0806  0.0188  0.2500  -7.7152   0.0000   0.2785
  16.500   1.4518   0.10649   0.09987  -0.0845  0.0108  0.2500  -7.7577   0.0000   0.2811
  20.000   1.2537   0.21228   0.20778  -0.1415  0.0065  0.2500  -6.5108   0.0000   0.3302


