xflr5 v6.42

 Calculated polar for: FX_60-126

 1 1 Reynolds number fixed          Mach number fixed         

 xtrf =   0.250 (top)        0.250 (bottom)
 Mach =   0.000     Re =     0.400 e 6     Ncrit =   5.000

  alpha     CL        CD       CDp       Cm    Top Xtr Bot Xtr   Cpmin    Chinge    XCp    
 ------- -------- --------- --------- -------- ------- ------- -------- --------- ---------
 -10.000  -0.3116   0.10125   0.09576  -0.0484  0.2500  0.0186  -2.0872   0.0000   0.0786
  -9.500  -0.3074   0.09086   0.08542  -0.0548  0.2500  0.0203  -2.2859   0.0000   0.0559
  -9.000  -0.3126   0.07650   0.07109  -0.0646  0.2500  0.0206  -2.6525   0.0000   0.0277
  -8.500  -0.3329   0.06090   0.05540  -0.0807  0.2500  0.0206  -3.0429   0.0000  -0.0068
  -7.500  -0.3112   0.03797   0.03172  -0.1105  0.2500  0.0230  -3.1846   0.0000  -0.1184
  -7.000  -0.2644   0.03315   0.02643  -0.1150  0.2500  0.0254  -2.9605   0.0000  -0.1990
  -6.500  -0.1663   0.00043  -0.00595  -0.1002  0.2500  0.0136  -2.7705   0.0000  -0.3598
  -6.000  -0.1508   0.02147   0.01310  -0.1194  0.2500  0.0119  -3.1609   0.0000  -0.5629
  -5.000  -0.0341   0.01772   0.00872  -0.1206  0.2500  0.0092  -2.6784   0.0000  -3.3627
  -4.500   0.0251   0.01619   0.00703  -0.1217  0.2500  0.0086  -2.3767   0.0000   5.1837
  -4.000   0.0858   0.01503   0.00574  -0.1229  0.2500  0.0081  -2.0694   0.0000   1.7046
  -3.500   0.1471   0.01415   0.00473  -0.1243  0.2500  0.0077  -1.7501   0.0000   1.1055
  -3.000   0.2077   0.01357   0.00397  -0.1253  0.2500  0.0074  -1.4239   0.0000   0.8591
  -2.500   0.2677   0.01319   0.00342  -0.1261  0.2500  0.0073  -1.0998   0.0000   0.7244
  -2.000   0.3270   0.01293   0.00303  -0.1267  0.2500  0.0074  -0.7878   0.0000   0.6391
  -1.500   0.3859   0.01277   0.00276  -0.1271  0.2500  0.0077  -0.6706   0.0000   0.5800
  -1.000   0.4444   0.01268   0.00260  -0.1275  0.2500  0.0094  -0.7157   0.0000   0.5366
  -0.500   0.5036   0.01245   0.00249  -0.1282  0.2500  0.0854  -0.7614   0.0000   0.5035
   0.000   0.5641   0.01196   0.00246  -0.1296  0.2500  0.2500  -0.8084   0.0000   0.4781
   0.500   0.6211   0.01208   0.00254  -0.1297  0.2500  0.2500  -0.8600   0.0000   0.4566
   1.000   0.6779   0.01221   0.00267  -0.1297  0.2500  0.2500  -0.9219   0.0000   0.4386
   1.500   0.7344   0.01235   0.00284  -0.1297  0.2500  0.2500  -0.9894   0.0000   0.4233
   2.000   0.7906   0.01251   0.00304  -0.1297  0.2500  0.2500  -1.0717   0.0000   0.4102
   2.500   0.8465   0.01269   0.00326  -0.1296  0.2500  0.2500  -1.1751   0.0000   0.3987
   3.000   0.9021   0.01288   0.00353  -0.1295  0.2500  0.2500  -1.2850   0.0000   0.3886
   3.500   0.9574   0.01308   0.00382  -0.1293  0.2500  0.2500  -1.3995   0.0000   0.3796
   4.000   1.0123   0.01331   0.00414  -0.1291  0.2500  0.2500  -1.5292   0.0000   0.3715
   4.500   1.0668   0.01355   0.00454  -0.1288  0.2500  0.2500  -1.6976   0.0000   0.3641
   5.000   1.1209   0.01382   0.00497  -0.1285  0.2500  0.2500  -1.9058   0.0000   0.3573
   5.500   1.1653   0.01498   0.00579  -0.1268  0.1849  0.2500  -2.1011   0.0000   0.3509
   6.000   1.2059   0.01644   0.00684  -0.1247  0.1172  0.2500  -2.2940   0.0000   0.3449
   6.500   1.2515   0.01733   0.00769  -0.1231  0.0925  0.2500  -2.5026   0.0000   0.3392
   7.000   1.2963   0.01821   0.00855  -0.1215  0.0767  0.2500  -2.7151   0.0000   0.3339
   7.500   1.3367   0.01936   0.00963  -0.1193  0.0531  0.2500  -2.9236   0.0000   0.3287
   8.000   1.3720   0.02079   0.01094  -0.1163  0.0306  0.2500  -3.1276   0.0000   0.3235
   8.500   1.4090   0.02191   0.01211  -0.1135  0.0250  0.2500  -3.3398   0.0000   0.3185
   9.000   1.4438   0.02292   0.01328  -0.1103  0.0224  0.2500  -3.5577   0.0000   0.3136
   9.500   1.4732   0.02404   0.01454  -0.1063  0.0208  0.2500  -3.8318   0.0000   0.3086
  10.000   1.5028   0.02536   0.01603  -0.1028  0.0182  0.2500  -4.3105   0.0000   0.3041
  10.500   1.5241   0.02735   0.01814  -0.0986  0.0118  0.2500  -4.7540   0.0000   0.2995
  11.000   1.5376   0.03008   0.02101  -0.0943  0.0044  0.2500  -5.1553   0.0000   0.2953
  11.500   1.5478   0.03338   0.02451  -0.0904  0.0030  0.2500  -5.5440   0.0000   0.2915
  12.000   1.5597   0.03679   0.02816  -0.0874  0.0026  0.2500  -5.9458   0.0000   0.2882
  12.500   1.5702   0.04054   0.03216  -0.0848  0.0024  0.2500  -6.3315   0.0000   0.2852
  13.000   1.5759   0.04499   0.03688  -0.0826  0.0022  0.2500  -6.6695   0.0000   0.2826
  13.500   1.5775   0.05017   0.04235  -0.0809  0.0021  0.2500  -6.9951   0.0000   0.2805
  14.000   1.5736   0.05620   0.04868  -0.0798  0.0020  0.2500  -7.2695   0.0000   0.2788
  14.500   1.5654   0.06323   0.05604  -0.0794  0.0019  0.2500  -7.5034   0.0000   0.2778
  15.000   1.5536   0.07127   0.06440  -0.0800  0.0018  0.2500  -7.7017   0.0000   0.2774
  15.500   1.5370   0.08039   0.07383  -0.0814  0.0017  0.2500  -7.8550   0.0000   0.2778
  16.000   1.5165   0.09064   0.08440  -0.0839  0.0017  0.2500  -7.9652   0.0000   0.2791
  16.500   1.4925   0.10197   0.09604  -0.0873  0.0016  0.2500  -8.0278   0.0000   0.2812
  17.000   1.4648   0.11424   0.10861  -0.0917  0.0016  0.2500  -8.0388   0.0000   0.2843
  17.500   1.4353   0.12751   0.12219  -0.0973  0.0016  0.2500  -8.0007   0.0000   0.2884
  18.000   1.4048   0.14159   0.13655  -0.1039  0.0016  0.2500  -7.9125   0.0000   0.2936
  18.500   1.3741   0.15628   0.15153  -0.1114  0.0016  0.2500  -7.7725   0.0000   0.2998
  19.000   1.3450   0.17142   0.16692  -0.1197  0.0016  0.2500  -7.5905   0.0000   0.3070
  19.500   1.3178   0.18714   0.18288  -0.1288  0.0016  0.2500  -7.3609   0.0000   0.3150
  20.000   1.2937   0.20322   0.19917  -0.1385  0.0017  0.2500  -7.0905   0.0000   0.3236


