xflr5 v6.42

 Calculated polar for: FX_63-137

 1 1 Reynolds number fixed          Mach number fixed         

 xtrf =   0.250 (top)        0.250 (bottom)
 Mach =   0.000     Re =     0.005 e 6     Ncrit =   5.000

  alpha     CL        CD       CDp       Cm    Top Xtr Bot Xtr   Cpmin    Chinge    XCp    
 ------- -------- --------- --------- -------- ------- ------- -------- --------- ---------
 -10.000  -0.2568   0.15876   0.13548  -0.0427  0.2500  0.2500  -1.5758   0.0000   0.0598
  -9.500  -0.2564   0.15401   0.13105  -0.0421  0.2500  0.2500  -1.6020   0.0000   0.0630
  -9.000  -0.2578   0.14938   0.12668  -0.0411  0.2500  0.2500  -1.6295   0.0000   0.0689
  -8.500  -0.2615   0.14490   0.12253  -0.0398  0.2500  0.2500  -1.6588   0.0000   0.0776
  -8.000  -0.2674   0.14054   0.11852  -0.0382  0.2500  0.2500  -1.6900   0.0000   0.0886
  -7.500  -0.2749   0.13622   0.11455  -0.0365  0.2500  0.2500  -1.7230   0.0000   0.1004
  -7.000  -0.2816   0.13167   0.11033  -0.0352  0.2500  0.2500  -1.7560   0.0000   0.1095
  -6.500  -0.2879   0.12693   0.10590  -0.0343  0.2500  0.2500  -1.7896   0.0000   0.1167
  -6.000  -0.2932   0.12197   0.10123  -0.0338  0.2500  0.2500  -1.8233   0.0000   0.1216
  -5.500  -0.2968   0.11675   0.09624  -0.0340  0.2500  0.2500  -1.8568   0.0000   0.1237
  -5.000  -0.2972   0.11117   0.09085  -0.0348  0.2500  0.2500  -1.8880   0.0000   0.1217
  -4.500  -0.2928   0.10519   0.08497  -0.0368  0.2500  0.2500  -1.9156   0.0000   0.1139
  -4.000  -0.2813   0.09879   0.07857  -0.0400  0.2500  0.2500  -1.9548   0.0000   0.0976
  -3.500  -0.2595   0.09201   0.07155  -0.0450  0.2500  0.2500  -1.9882   0.0000   0.0666
  -3.000  -0.2247   0.08507   0.06423  -0.0516  0.2500  0.2500  -2.0051   0.0000   0.0096
  -2.500  -0.1776   0.07863   0.05721  -0.0589  0.2500  0.2500  -1.9906   0.0000  -0.0941
  -2.000  -0.1278   0.07396   0.05179  -0.0640  0.2500  0.2500  -1.9222   0.0000  -0.2665
  -1.500  -0.0805   0.07138   0.04813  -0.0671  0.2500  0.2500  -1.7975   0.0000  -0.6054
  -1.000  -0.0343   0.07027   0.04582  -0.0696  0.2500  0.2500  -1.6350   0.0000  -1.8222
  -0.500   0.0111   0.07008   0.04445  -0.0717  0.2500  0.2500  -1.4531   0.0000   6.8300
   0.000   0.0562   0.07045   0.04365  -0.0739  0.2500  0.2500  -1.2634   0.0000   1.5802
   0.500   0.1007   0.07127   0.04343  -0.0761  0.2500  0.2500  -1.0852   0.0000   1.0103
   1.000   0.1443   0.07247   0.04371  -0.0782  0.2500  0.2500  -0.9204   0.0000   0.7923
   1.500   0.1872   0.07401   0.04436  -0.0803  0.2500  0.2500  -0.7584   0.0000   0.6771
   2.000   0.2290   0.07584   0.04548  -0.0823  0.2500  0.2500  -0.6015   0.0000   0.6060
   2.500   0.2699   0.07795   0.04698  -0.0842  0.2500  0.2500  -0.6089   0.0000   0.5576
   3.000   0.3098   0.08030   0.04877  -0.0861  0.2500  0.2500  -0.6339   0.0000   0.5226
   3.500   0.3487   0.08287   0.05093  -0.0879  0.2500  0.2500  -0.6593   0.0000   0.4960
   4.000   0.3866   0.08567   0.05339  -0.0897  0.2500  0.2500  -0.6859   0.0000   0.4752
   4.500   0.4237   0.08867   0.05610  -0.0915  0.2500  0.2500  -0.7129   0.0000   0.4583
   5.000   0.4600   0.09187   0.05912  -0.0933  0.2500  0.2500  -0.7419   0.0000   0.4445
   5.500   0.4957   0.09525   0.06238  -0.0950  0.2500  0.2500  -0.7707   0.0000   0.4328
   6.000   0.5307   0.09880   0.06587  -0.0968  0.2500  0.2500  -0.8030   0.0000   0.4228
   6.500   0.5651   0.10251   0.06957  -0.0986  0.2500  0.2500  -0.8382   0.0000   0.4142
   7.000   0.5989   0.10636   0.07347  -0.1004  0.2500  0.2500  -0.8829   0.0000   0.4067
   7.500   0.6324   0.11039   0.07764  -0.1023  0.2500  0.2500  -0.9397   0.0000   0.4002
   8.000   0.6652   0.11452   0.08189  -0.1042  0.2500  0.2500  -0.9990   0.0000   0.3943
   8.500   0.6973   0.11878   0.08632  -0.1061  0.2500  0.2500  -1.0609   0.0000   0.3890
   9.000   0.7289   0.12319   0.09095  -0.1079  0.2500  0.2500  -1.1270   0.0000   0.3843
   9.500   0.7600   0.12776   0.09593  -0.1098  0.2500  0.2500  -1.1916   0.0000   0.3800
  10.000   0.7905   0.13250   0.10101  -0.1118  0.2500  0.2500  -1.2545   0.0000   0.3761
  10.500   0.8204   0.13737   0.10626  -0.1137  0.2500  0.2500  -1.3218   0.0000   0.3726
  11.000   0.8495   0.14238   0.11186  -0.1157  0.2500  0.2500  -1.3904   0.0000   0.3693
  11.500   0.8779   0.14765   0.11761  -0.1178  0.2500  0.2500  -1.4554   0.0000   0.3665
  12.000   0.9053   0.15327   0.12375  -0.1200  0.2500  0.2500  -1.5153   0.0000   0.3641
  12.500   0.9317   0.15932   0.13034  -0.1224  0.2500  0.2500  -1.5692   0.0000   0.3622
  13.000   0.9569   0.16587   0.13760  -0.1251  0.2500  0.2500  -1.6262   0.0000   0.3607
  13.500   0.9807   0.17297   0.14528  -0.1281  0.2500  0.2500  -1.6742   0.0000   0.3597
  14.000   1.0031   0.18070   0.15357  -0.1313  0.2500  0.2500  -1.7120   0.0000   0.3592
  14.500   1.0242   0.18897   0.16239  -0.1348  0.2500  0.2500  -1.7394   0.0000   0.3592
  15.000   1.0440   0.19774   0.17182  -0.1386  0.2500  0.2500  -1.7665   0.0000   0.3595
  15.500   1.0629   0.20692   0.18150  -0.1426  0.2500  0.2500  -1.7877   0.0000   0.3601
  16.000   1.0804   0.21635   0.19141  -0.1469  0.2500  0.2500  -1.7994   0.0000   0.3610
  16.500   1.0966   0.22587   0.20138  -0.1513  0.2500  0.2500  -1.8067   0.0000   0.3622
  17.000   1.1116   0.23530   0.21125  -0.1559  0.2500  0.2500  -1.8159   0.0000   0.3636
  17.500   1.1261   0.24468   0.22114  -0.1605  0.2500  0.2500  -1.8198   0.0000   0.3650
  18.000   1.1404   0.25407   0.23094  -0.1653  0.2500  0.2500  -1.8298   0.0000   0.3665
  18.500   1.1545   0.26346   0.24073  -0.1702  0.2500  0.2500  -1.8392   0.0000   0.3680
  19.000   1.1685   0.27275   0.25041  -0.1751  0.2500  0.2500  -1.8563   0.0000   0.3694
  19.500   1.1824   0.28196   0.26000  -0.1800  0.2500  0.2500  -1.8815   0.0000   0.3707
  20.000   1.1964   0.29110   0.26963  -0.1850  0.2500  0.2500  -1.9181   0.0000   0.3721


