xflr5 v6.42

 Calculated polar for: FX_60-126

 1 1 Reynolds number fixed          Mach number fixed         

 xtrf =   0.250 (top)        0.250 (bottom)
 Mach =   0.000     Re =     0.040 e 6     Ncrit =   5.000

  alpha     CL        CD       CDp       Cm    Top Xtr Bot Xtr   Cpmin    Chinge    XCp    
 ------- -------- --------- --------- -------- ------- ------- -------- --------- ---------
 -10.000  -0.3302   0.11066   0.09967  -0.0480  0.2500  0.0386  -2.1306   0.0000   0.0897
  -9.500  -0.3206   0.10304   0.09211  -0.0505  0.2500  0.0378  -2.1675   0.0000   0.0778
  -9.000  -0.3145   0.09481   0.08398  -0.0540  0.2500  0.0368  -2.2535   0.0000   0.0638
  -8.500  -0.3126   0.08552   0.07481  -0.0589  0.2500  0.0358  -2.3974   0.0000   0.0476
  -8.000  -0.3192   0.07474   0.06413  -0.0660  0.2500  0.0346  -2.6200   0.0000   0.0301
  -7.500  -0.3260   0.06206   0.05126  -0.0798  0.2500  0.0334  -2.8997   0.0000  -0.0073
  -7.000  -0.3104   0.05186   0.04037  -0.0901  0.2500  0.0326  -3.0445   0.0000  -0.0526
  -6.500  -0.2737   0.04473   0.03238  -0.0949  0.2500  0.0324  -3.0379   0.0000  -0.1096
  -6.000  -0.2285   0.03986   0.02669  -0.0963  0.2500  0.0328  -2.9343   0.0000  -0.1854
  -5.500  -0.1811   0.03635   0.02261  -0.0962  0.2500  0.0339  -2.7818   0.0000  -0.2970
  -5.000  -0.1312   0.03359   0.01933  -0.0963  0.2500  0.0367  -2.6017   0.0000  -0.5042
  -4.500  -0.0767   0.03083   0.01625  -0.0984  0.2500  0.0446  -2.3854   0.0000  -1.0637
  -4.000  -0.0160   0.02813   0.01324  -0.1017  0.2500  0.0689  -2.1993   0.0000  -6.2333
  -3.500   0.0483   0.02569   0.01138  -0.1056  0.2500  0.2500  -2.0255   0.0000   2.4710
  -3.000   0.1062   0.02544   0.01028  -0.1057  0.2500  0.2500  -1.7625   0.0000   1.2577
  -2.500   0.1633   0.02528   0.00944  -0.1059  0.2500  0.2500  -1.4561   0.0000   0.9048
  -2.000   0.2197   0.02521   0.00884  -0.1061  0.2500  0.2500  -1.1297   0.0000   0.7360
  -1.500   0.2756   0.02522   0.00840  -0.1062  0.2500  0.2500  -0.8012   0.0000   0.6366
  -1.000   0.3309   0.02530   0.00814  -0.1062  0.2500  0.2500  -0.6421   0.0000   0.5711
  -0.500   0.3856   0.02545   0.00804  -0.1062  0.2500  0.2500  -0.6838   0.0000   0.5245
   0.000   0.4396   0.02567   0.00804  -0.1060  0.2500  0.2500  -0.7254   0.0000   0.4895
   0.500   0.4931   0.02594   0.00820  -0.1058  0.2500  0.2500  -0.7738   0.0000   0.4622
   1.000   0.5459   0.02628   0.00845  -0.1054  0.2500  0.2500  -0.8256   0.0000   0.4403
   1.500   0.5981   0.02668   0.00884  -0.1050  0.2500  0.2500  -0.8817   0.0000   0.4222
   2.000   0.6495   0.02714   0.00939  -0.1045  0.2500  0.2500  -0.9437   0.0000   0.4070
   2.500   0.7004   0.02767   0.01000  -0.1040  0.2500  0.2500  -1.0203   0.0000   0.3940
   3.000   0.7505   0.02827   0.01073  -0.1034  0.2500  0.2500  -1.1106   0.0000   0.3827
   3.500   0.7998   0.02894   0.01164  -0.1027  0.2500  0.2500  -1.2099   0.0000   0.3728
   4.000   0.8479   0.02968   0.01261  -0.1018  0.2500  0.2500  -1.3098   0.0000   0.3639
   4.500   0.8948   0.03051   0.01372  -0.1008  0.2500  0.2500  -1.4176   0.0000   0.3560
   5.000   0.9404   0.03144   0.01506  -0.0997  0.2500  0.2500  -1.5320   0.0000   0.3487
   5.500   0.9844   0.03248   0.01648  -0.0983  0.2500  0.2500  -1.6464   0.0000   0.3420
   6.000   1.0266   0.03364   0.01810  -0.0968  0.2500  0.2500  -1.8155   0.0000   0.3359
   6.500   1.0669   0.03493   0.01987  -0.0952  0.2500  0.2500  -1.9916   0.0000   0.3301
   7.000   1.1042   0.03638   0.02183  -0.0931  0.2500  0.2500  -2.1653   0.0000   0.3246
   7.500   1.1387   0.03801   0.02404  -0.0908  0.2500  0.2500  -2.3360   0.0000   0.3193
   8.000   1.1726   0.03987   0.02649  -0.0887  0.2500  0.2500  -2.5068   0.0000   0.3145
   8.500   1.2052   0.04196   0.02919  -0.0865  0.2500  0.2500  -2.6756   0.0000   0.3099
   9.000   1.2378   0.04425   0.03217  -0.0842  0.2500  0.2500  -2.8427   0.0000   0.3055
   9.500   1.2741   0.04674   0.03531  -0.0821  0.2500  0.2500  -3.0117   0.0000   0.3011
  10.000   1.3175   0.04968   0.03878  -0.0801  0.2429  0.2500  -3.1836   0.0000   0.2968
  10.500   1.3300   0.05362   0.04298  -0.0766  0.2190  0.2500  -3.2956   0.0000   0.2929
  11.000   1.3358   0.05820   0.04778  -0.0736  0.1976  0.2500  -3.5586   0.0000   0.2895
  11.500   1.3433   0.06317   0.05303  -0.0710  0.1808  0.2500  -3.8505   0.0000   0.2865
  12.000   1.3604   0.06728   0.05721  -0.0686  0.1649  0.2500  -4.2196   0.0000   0.2831
  12.500   1.3326   0.07638   0.06698  -0.0680  0.1534  0.2500  -4.2649   0.0000   0.2829
  13.000   1.3300   0.08233   0.07302  -0.0671  0.1401  0.2500  -4.5139   0.0000   0.2815
  13.500   1.2820   0.09630   0.08764  -0.0708  0.1334  0.2500  -4.3613   0.0000   0.2854
  14.000   1.1972   0.11994   0.11171  -0.0816  0.1298  0.2500  -3.8209   0.0000   0.2979
  15.000   1.0988   0.16212   0.15386  -0.1031  0.1143  0.2500  -3.0794   0.0000   0.3231
  15.500   1.0769   0.17880   0.17051  -0.1119  0.1079  0.2500  -2.8731   0.0000   0.3329
  16.000   1.0787   0.18914   0.18095  -0.1165  0.1035  0.2500  -2.9296   0.0000   0.3363
  16.500   1.0916   0.19653   0.18850  -0.1187  0.1004  0.2500  -3.1292   0.0000   0.3362
  17.000   1.0959   0.20741   0.19944  -0.1234  0.0988  0.2500  -3.1830   0.0000   0.3394
  17.500   1.0965   0.22003   0.21213  -0.1301  0.0985  0.2500  -3.1428   0.0000   0.3448
  18.000   1.1041   0.23093   0.22315  -0.1351  0.0987  0.2500  -3.1927   0.0000   0.3479
  18.500   1.1093   0.24191   0.23422  -0.1414  0.0983  0.2500  -3.1915   0.0000   0.3522
  19.000   1.1078   0.25191   0.24424  -0.1501  0.0951  0.2500  -3.0880   0.0000   0.3595
  19.500   1.1182   0.26102   0.25347  -0.1554  0.0952  0.2500  -3.1353   0.0000   0.3622
  20.000   1.1328   0.27037   0.26299  -0.1594  0.0971  0.2500  -3.2250   0.0000   0.3630


