xflr5 v6.42

 Calculated polar for: FX_63-137

 1 1 Reynolds number fixed          Mach number fixed         

 xtrf =   0.250 (top)        0.250 (bottom)
 Mach =   0.000     Re =     0.055 e 6     Ncrit =   5.000

  alpha     CL        CD       CDp       Cm    Top Xtr Bot Xtr   Cpmin    Chinge    XCp    
 ------- -------- --------- --------- -------- ------- ------- -------- --------- ---------
 -10.000  -0.1182   0.11766   0.10694  -0.0821  0.2500  0.1067  -1.3602   0.0000  -0.4978
  -9.500  -0.1036   0.11124   0.10055  -0.0838  0.2500  0.1075  -1.3826   0.0000  -0.6162
  -9.000  -0.0944   0.10016   0.08942  -0.0885  0.2500  0.0608  -1.6852   0.0000  -0.7490
  -8.500  -0.0837   0.09352   0.08284  -0.0902  0.2500  0.0573  -1.7421   0.0000  -0.8935
  -8.000  -0.0820   0.08607   0.07552  -0.0933  0.2500  0.0540  -1.8869   0.0000  -0.9511
  -7.500  -0.1036   0.07407   0.06369  -0.1020  0.2500  0.0495  -2.3590   0.0000  -0.7822
  -7.000  -0.0986   0.06476   0.05441  -0.1100  0.2500  0.0487  -2.5081   0.0000  -0.9116
  -6.500  -0.0799   0.05310   0.04238  -0.1262  0.2500  0.0481  -2.7079   0.0000  -1.3808
  -6.000  -0.0240   0.04301   0.03112  -0.1419  0.2500  0.0496  -2.7844   0.0000  -5.8287
  -5.500   0.0326   0.03846   0.02626  -0.1472  0.2500  0.0555  -2.5476   0.0000   4.8747
  -5.000   0.1000   0.03386   0.02078  -0.1526  0.2500  0.0596  -2.3838   0.0000   1.8097
  -4.500   0.1600   0.03081   0.01716  -0.1542  0.2500  0.0650  -2.1856   0.0000   1.2324
  -4.000   0.2171   0.02901   0.01517  -0.1552  0.2500  0.0796  -1.9636   0.0000   0.9769
  -3.500   0.2783   0.02723   0.01327  -0.1569  0.2500  0.1040  -1.7819   0.0000   0.8223
  -3.000   0.3637   0.02476   0.01149  -0.1657  0.2500  0.2500  -1.5424   0.0000   0.7108
  -2.500   0.4232   0.02477   0.01075  -0.1663  0.2500  0.2500  -1.2842   0.0000   0.6465
  -2.000   0.4807   0.02490   0.01038  -0.1668  0.2500  0.2500  -1.0197   0.0000   0.5991
  -1.500   0.5369   0.02511   0.01019  -0.1671  0.2500  0.2500  -0.8272   0.0000   0.5621
  -1.000   0.5920   0.02540   0.01016  -0.1672  0.2500  0.2500  -0.8679   0.0000   0.5324
  -0.500   0.6458   0.02574   0.01026  -0.1671  0.2500  0.2500  -0.9086   0.0000   0.5078
   0.000   0.6984   0.02615   0.01049  -0.1668  0.2500  0.2500  -0.9518   0.0000   0.4870
   0.500   0.7498   0.02662   0.01082  -0.1664  0.2500  0.2500  -0.9945   0.0000   0.4692
   1.000   0.7999   0.02715   0.01127  -0.1657  0.2500  0.2500  -1.0390   0.0000   0.4537
   1.500   0.8487   0.02774   0.01183  -0.1648  0.2500  0.2500  -1.0870   0.0000   0.4401
   2.000   0.8956   0.02840   0.01249  -0.1637  0.2500  0.2500  -1.1374   0.0000   0.4279
   2.500   0.9403   0.02914   0.01326  -0.1622  0.2500  0.2500  -1.1872   0.0000   0.4169
   3.000   0.9835   0.02996   0.01419  -0.1605  0.2500  0.2500  -1.2403   0.0000   0.4069
   3.500   1.0263   0.03088   0.01521  -0.1589  0.2500  0.2500  -1.2971   0.0000   0.3978
   4.000   1.0681   0.03190   0.01637  -0.1572  0.2500  0.2500  -1.3547   0.0000   0.3895
   4.500   1.1084   0.03304   0.01773  -0.1554  0.2500  0.2500  -1.4565   0.0000   0.3818
   5.000   1.1470   0.03431   0.01920  -0.1535  0.2500  0.2500  -1.5656   0.0000   0.3746
   5.500   1.1840   0.03571   0.02084  -0.1515  0.2500  0.2500  -1.6742   0.0000   0.3680
   6.000   1.2192   0.03727   0.02272  -0.1494  0.2500  0.2500  -1.7934   0.0000   0.3618
   6.500   1.2527   0.03901   0.02475  -0.1473  0.2500  0.2500  -1.9126   0.0000   0.3561
   7.000   1.2844   0.04093   0.02700  -0.1451  0.2500  0.2500  -2.0303   0.0000   0.3507
   7.500   1.3143   0.04306   0.02952  -0.1430  0.2500  0.2500  -2.1467   0.0000   0.3456
   8.000   1.3424   0.04540   0.03225  -0.1408  0.2500  0.2500  -2.2609   0.0000   0.3409
   8.500   1.3686   0.04796   0.03522  -0.1386  0.2500  0.2500  -2.3813   0.0000   0.3364
   9.000   1.3930   0.05076   0.03844  -0.1365  0.2500  0.2500  -2.5029   0.0000   0.3322
   9.500   1.4157   0.05378   0.04197  -0.1344  0.2500  0.2500  -2.6218   0.0000   0.3283
  10.000   1.4367   0.05701   0.04568  -0.1323  0.2500  0.2500  -2.7373   0.0000   0.3245
  10.500   1.4567   0.06039   0.04956  -0.1302  0.2500  0.2500  -2.8501   0.0000   0.3209
  11.000   1.4773   0.06375   0.05348  -0.1281  0.2500  0.2500  -2.9624   0.0000   0.3173
  11.500   1.5022   0.06667   0.05694  -0.1259  0.2500  0.2500  -3.0932   0.0000   0.3134
  12.000   1.5127   0.07116   0.06182  -0.1235  0.2354  0.2500  -3.1897   0.0000   0.3102
  12.500   1.5062   0.07738   0.06808  -0.1213  0.2098  0.2500  -3.2501   0.0000   0.3081
  13.000   1.5009   0.08378   0.07456  -0.1198  0.1883  0.2500  -3.3089   0.0000   0.3063
  13.500   1.5004   0.08969   0.08047  -0.1184  0.1716  0.2500  -3.3774   0.0000   0.3043
  14.000   1.5012   0.09578   0.08678  -0.1175  0.1587  0.2500  -3.4468   0.0000   0.3026
  14.500   1.5093   0.10085   0.09200  -0.1163  0.1489  0.2500  -3.5430   0.0000   0.3004
  15.000   1.5063   0.10808   0.09962  -0.1167  0.1401  0.2500  -3.5970   0.0000   0.2997
  15.500   1.5225   0.11172   0.10332  -0.1156  0.1317  0.2500  -3.8062   0.0000   0.2970
  16.000   1.5010   0.12267   0.11482  -0.1186  0.1265  0.2500  -3.8457   0.0000   0.2991
  16.500   1.4564   0.13899   0.13171  -0.1256  0.1222  0.2500  -3.7225   0.0000   0.3055
  17.000   1.3411   0.17604   0.16911  -0.1471  0.1164  0.2500  -3.0350   0.0000   0.3290
  17.500   1.3344   0.18748   0.18068  -0.1528  0.1121  0.2500  -3.0501   0.0000   0.3330
  18.000   1.2933   0.21237   0.20554  -0.1676  0.1063  0.2500  -2.7133   0.0000   0.3481
  18.500   1.2792   0.22924   0.22247  -0.1782  0.1011  0.2500  -2.5654   0.0000   0.3573
  19.000   1.2809   0.24079   0.23412  -0.1852  0.0984  0.2500  -2.5488   0.0000   0.3617
  19.500   1.2912   0.24879   0.24226  -0.1900  0.0949  0.2500  -2.6392   0.0000   0.3632
  20.000   1.3173   0.24976   0.24347  -0.1890  0.0904  0.2500  -2.9642   0.0000   0.3578


