xflr5 v6.42

 Calculated polar for: FX_63-137

 1 1 Reynolds number fixed          Mach number fixed         

 xtrf =   0.250 (top)        0.250 (bottom)
 Mach =   0.000     Re =     0.015 e 6     Ncrit =   5.000

  alpha     CL        CD       CDp       Cm    Top Xtr Bot Xtr   Cpmin    Chinge    XCp    
 ------- -------- --------- --------- -------- ------- ------- -------- --------- ---------
 -10.000  -0.1630   0.13547   0.11923  -0.0637  0.2500  0.2023  -1.3704   0.0000  -0.1783
  -9.000  -0.1538   0.12359   0.10761  -0.0682  0.2500  0.1775  -1.4944   0.0000  -0.2289
  -8.500  -0.1420   0.11712   0.10127  -0.0689  0.2500  0.1727  -1.5147   0.0000  -0.2719
  -8.000  -0.1375   0.11121   0.09555  -0.0697  0.2500  0.1672  -1.5574   0.0000  -0.2926
  -7.500  -0.1400   0.10559   0.09020  -0.0706  0.2500  0.1623  -1.6217   0.0000  -0.2863
  -7.000  -0.1423   0.09956   0.08443  -0.0729  0.2500  0.1590  -1.6982   0.0000  -0.2912
  -6.500  -0.1385   0.09348   0.07857  -0.0746  0.2500  0.1599  -1.7403   0.0000  -0.3168
  -6.000  -0.1318   0.08743   0.07270  -0.0764  0.2500  0.1635  -1.7668   0.0000  -0.3563
  -5.500  -0.1239   0.08071   0.06609  -0.0800  0.2500  0.1671  -1.8112   0.0000  -0.4212
  -5.000  -0.1089   0.07294   0.05832  -0.0863  0.2500  0.1703  -1.8676   0.0000  -0.5695
  -4.500  -0.0752   0.06398   0.04893  -0.0972  0.2500  0.1771  -1.9200   0.0000  -1.0773
  -4.000  -0.0284   0.05781   0.04245  -0.1031  0.2500  0.1971  -1.8491   0.0000  -3.4617
  -3.500   0.0431   0.05129   0.03516  -0.1137  0.2500  0.2355  -1.8131   0.0000   2.9418
  -3.000   0.1120   0.04562   0.02891  -0.1187  0.2500  0.2500  -1.7872   0.0000   1.3268
  -2.500   0.1693   0.04280   0.02550  -0.1191  0.2500  0.2500  -1.6862   0.0000   0.9636
  -2.000   0.2211   0.04243   0.02422  -0.1193  0.2500  0.2500  -1.4795   0.0000   0.7953
  -1.500   0.2744   0.04252   0.02345  -0.1204  0.2500  0.2500  -1.2486   0.0000   0.6919
  -1.000   0.3268   0.04292   0.02314  -0.1216  0.2500  0.2500  -1.0170   0.0000   0.6233
  -0.500   0.3780   0.04355   0.02317  -0.1226  0.2500  0.2500  -0.8157   0.0000   0.5743
   0.000   0.4279   0.04441   0.02355  -0.1236  0.2500  0.2500  -0.7652   0.0000   0.5376
   0.500   0.4760   0.04551   0.02427  -0.1244  0.2500  0.2500  -0.7988   0.0000   0.5090
   1.000   0.5219   0.04684   0.02528  -0.1250  0.2500  0.2500  -0.8337   0.0000   0.4862
   1.500   0.5657   0.04838   0.02662  -0.1253  0.2500  0.2500  -0.8692   0.0000   0.4676
   2.000   0.6074   0.05015   0.02826  -0.1256  0.2500  0.2500  -0.9040   0.0000   0.4520
   2.500   0.6466   0.05220   0.03026  -0.1257  0.2500  0.2500  -0.9401   0.0000   0.4388
   3.000   0.6836   0.05449   0.03257  -0.1257  0.2500  0.2500  -0.9741   0.0000   0.4276
   3.500   0.7185   0.05705   0.03521  -0.1256  0.2500  0.2500  -1.0098   0.0000   0.4179
   4.000   0.7506   0.05995   0.03824  -0.1255  0.2500  0.2500  -1.0436   0.0000   0.4095
   4.500   0.7804   0.06314   0.04161  -0.1253  0.2500  0.2500  -1.0780   0.0000   0.4023
   5.000   0.8080   0.06665   0.04538  -0.1252  0.2500  0.2500  -1.1101   0.0000   0.3959
   5.500   0.8330   0.07050   0.04948  -0.1251  0.2500  0.2500  -1.1461   0.0000   0.3904
   6.000   0.8564   0.07463   0.05387  -0.1250  0.2500  0.2500  -1.2065   0.0000   0.3856
   6.500   0.8776   0.07907   0.05860  -0.1250  0.2500  0.2500  -1.2698   0.0000   0.3813
   7.000   0.8980   0.08367   0.06360  -0.1250  0.2500  0.2500  -1.3336   0.0000   0.3774
   7.500   0.9177   0.08844   0.06867  -0.1251  0.2500  0.2500  -1.3960   0.0000   0.3738
   8.000   0.9376   0.09324   0.07380  -0.1253  0.2500  0.2500  -1.4583   0.0000   0.3704
   8.500   0.9579   0.09806   0.07896  -0.1255  0.2500  0.2500  -1.5265   0.0000   0.3670
   9.000   0.9787   0.10290   0.08426  -0.1258  0.2500  0.2500  -1.5990   0.0000   0.3637
   9.500   0.9999   0.10780   0.08955  -0.1261  0.2500  0.2500  -1.6713   0.0000   0.3606
  10.000   1.0216   0.11274   0.09489  -0.1265  0.2500  0.2500  -1.7434   0.0000   0.3575
  10.500   1.0434   0.11769   0.10027  -0.1269  0.2500  0.2500  -1.8146   0.0000   0.3544
  11.000   1.0647   0.12288   0.10601  -0.1274  0.2500  0.2500  -1.8841   0.0000   0.3517
  11.500   1.0852   0.12854   0.11214  -0.1282  0.2500  0.2500  -1.9557   0.0000   0.3494
  12.000   1.1041   0.13501   0.11911  -0.1295  0.2500  0.2500  -2.0151   0.0000   0.3477
  12.500   1.1201   0.14273   0.12732  -0.1314  0.2500  0.2500  -2.0543   0.0000   0.3470
  13.000   1.1319   0.15208   0.13720  -0.1342  0.2500  0.2500  -2.0649   0.0000   0.3476
  13.500   1.1395   0.16309   0.14861  -0.1381  0.2500  0.2500  -2.0479   0.0000   0.3496
  14.000   1.1438   0.17521   0.16106  -0.1427  0.2500  0.2500  -2.0173   0.0000   0.3526
  14.500   1.1462   0.18765   0.17378  -0.1479  0.2500  0.2500  -1.9718   0.0000   0.3563
  15.000   1.1490   0.19971   0.18609  -0.1532  0.2500  0.2500  -1.9234   0.0000   0.3600
  15.500   1.1529   0.21117   0.19778  -0.1585  0.2500  0.2500  -1.8809   0.0000   0.3634
  16.000   1.1578   0.22190   0.20873  -0.1637  0.2500  0.2500  -1.8504   0.0000   0.3666
  16.500   1.1637   0.23192   0.21895  -0.1688  0.2500  0.2500  -1.8219   0.0000   0.3694
  17.000   1.1713   0.24153   0.22883  -0.1738  0.2500  0.2500  -1.8018   0.0000   0.3719
  17.500   1.1802   0.25083   0.23834  -0.1787  0.2500  0.2500  -1.7924   0.0000   0.3740
  18.000   1.1902   0.25989   0.24762  -0.1837  0.2500  0.2500  -1.7860   0.0000   0.3759
  18.500   1.2010   0.26877   0.25671  -0.1886  0.2500  0.2500  -1.7924   0.0000   0.3776
  19.000   1.2126   0.27752   0.26568  -0.1935  0.2500  0.2500  -1.8166   0.0000   0.3791
  19.500   1.2246   0.28617   0.27456  -0.1984  0.2500  0.2500  -1.8566   0.0000   0.3805
  20.000   1.2373   0.29467   0.28334  -0.2034  0.2500  0.2500  -1.9115   0.0000   0.3818


