xflr5 v6.42

 Calculated polar for: FX_63-137

 1 1 Reynolds number fixed          Mach number fixed         

 xtrf =   0.250 (top)        0.250 (bottom)
 Mach =   0.000     Re =     0.200 e 6     Ncrit =   5.000

  alpha     CL        CD       CDp       Cm    Top Xtr Bot Xtr   Cpmin    Chinge    XCp    
 ------- -------- --------- --------- -------- ------- ------- -------- --------- ---------
 -10.000  -0.0832   0.09863   0.09123  -0.0942  0.2500  0.0203  -1.8107   0.0000  -0.9652
  -9.500  -0.0766   0.09080   0.08344  -0.0978  0.2500  0.0193  -2.0064   0.0000  -1.1131
  -9.000  -0.0739   0.08210   0.07479  -0.1022  0.2500  0.0189  -2.2725   0.0000  -1.2188
  -8.500  -0.0755   0.07254   0.06531  -0.1076  0.2500  0.0189  -2.5827   0.0000  -1.2552
  -8.000  -0.1361   0.03742   0.02959  -0.1506  0.2500  0.0181  -4.3582   0.0000  -0.8999
  -7.500  -0.0820   0.03189   0.02345  -0.1607  0.2500  0.0191  -4.1267   0.0000  -1.7763
  -7.000  -0.0198   0.02802   0.01891  -0.1674  0.2500  0.0215  -3.8269   0.0000  -8.4568
  -6.500   0.0459   0.02429   0.01442  -0.1726  0.2500  0.0223  -3.5759   0.0000   4.1181
  -6.000   0.1089   0.02181   0.01151  -0.1755  0.2500  0.0233  -3.2646   0.0000   1.9021
  -5.500   0.1715   0.02010   0.00964  -0.1781  0.2500  0.0252  -2.8916   0.0000   1.3123
  -5.000   0.2352   0.01893   0.00831  -0.1805  0.2500  0.0279  -2.5198   0.0000   1.0331
  -4.500   0.3008   0.01797   0.00721  -0.1834  0.2500  0.0330  -2.1870   0.0000   0.8705
  -4.000   0.3675   0.01722   0.00631  -0.1863  0.2500  0.0406  -1.8995   0.0000   0.7647
  -3.500   0.4345   0.01658   0.00563  -0.1892  0.2500  0.0626  -1.6092   0.0000   0.6910
  -3.000   0.5047   0.01578   0.00519  -0.1933  0.2500  0.1775  -1.3006   0.0000   0.6369
  -2.500   0.5672   0.01557   0.00500  -0.1950  0.2500  0.2500  -1.0105   0.0000   0.5964
  -2.000   0.6245   0.01570   0.00491  -0.1952  0.2500  0.2500  -0.8614   0.0000   0.5641
  -1.500   0.6811   0.01585   0.00490  -0.1952  0.2500  0.2500  -0.9074   0.0000   0.5372
  -1.000   0.7372   0.01604   0.00494  -0.1952  0.2500  0.2500  -0.9534   0.0000   0.5145
  -0.500   0.7927   0.01624   0.00505  -0.1951  0.2500  0.2500  -0.9994   0.0000   0.4950
   0.000   0.8477   0.01647   0.00521  -0.1949  0.2500  0.2500  -1.0469   0.0000   0.4780
   0.500   0.9019   0.01673   0.00542  -0.1946  0.2500  0.2500  -1.0966   0.0000   0.4631
   1.000   0.9554   0.01700   0.00568  -0.1942  0.2500  0.2500  -1.1463   0.0000   0.4499
   1.500   1.0083   0.01730   0.00598  -0.1936  0.2500  0.2500  -1.2012   0.0000   0.4380
   2.000   1.0604   0.01763   0.00633  -0.1929  0.2500  0.2500  -1.2581   0.0000   0.4272
   2.500   1.1116   0.01798   0.00673  -0.1921  0.2500  0.2500  -1.3195   0.0000   0.4174
   3.000   1.1619   0.01836   0.00717  -0.1912  0.2500  0.2500  -1.3862   0.0000   0.4083
   3.500   1.2112   0.01876   0.00769  -0.1900  0.2500  0.2500  -1.4740   0.0000   0.4000
   4.000   1.2591   0.01921   0.00823  -0.1887  0.2500  0.2500  -1.5981   0.0000   0.3922
   4.500   1.3059   0.01969   0.00883  -0.1871  0.2500  0.2500  -1.7290   0.0000   0.3849
   5.000   1.3509   0.02020   0.00952  -0.1853  0.2500  0.2500  -1.8687   0.0000   0.3780
   5.500   1.3916   0.02076   0.01024  -0.1826  0.2500  0.2500  -2.0050   0.0000   0.3713
   6.000   1.4321   0.02139   0.01104  -0.1800  0.2500  0.2500  -2.1435   0.0000   0.3650
   6.500   1.4728   0.02210   0.01197  -0.1776  0.2500  0.2500  -2.2849   0.0000   0.3591
   7.000   1.5126   0.02288   0.01297  -0.1751  0.2500  0.2500  -2.4352   0.0000   0.3535
   7.500   1.5506   0.02376   0.01408  -0.1724  0.2500  0.2500  -2.5919   0.0000   0.3480
   8.000   1.5874   0.02473   0.01534  -0.1696  0.2500  0.2500  -2.7488   0.0000   0.3429
   8.500   1.6225   0.02582   0.01671  -0.1667  0.2500  0.2500  -2.9045   0.0000   0.3379
   9.000   1.6487   0.02748   0.01857  -0.1627  0.2360  0.2500  -3.0456   0.0000   0.3329
   9.500   1.6581   0.03033   0.02138  -0.1572  0.2039  0.2500  -3.1555   0.0000   0.3281
  10.000   1.6639   0.03376   0.02476  -0.1520  0.1731  0.2500  -3.2655   0.0000   0.3237
  10.500   1.6675   0.03765   0.02863  -0.1472  0.1452  0.2500  -3.3740   0.0000   0.3197
  11.000   1.6703   0.04191   0.03294  -0.1430  0.1253  0.2500  -3.4794   0.0000   0.3160
  11.500   1.6718   0.04652   0.03761  -0.1393  0.1122  0.2500  -3.5808   0.0000   0.3127
  12.000   1.6776   0.05092   0.04221  -0.1363  0.1044  0.2500  -3.6904   0.0000   0.3095
  12.500   1.6805   0.05585   0.04731  -0.1336  0.0980  0.2500  -3.7925   0.0000   0.3067
  13.000   1.6781   0.06159   0.05320  -0.1311  0.0924  0.2500  -3.8792   0.0000   0.3043
  13.500   1.6790   0.06708   0.05891  -0.1291  0.0886  0.2500  -3.9848   0.0000   0.3019
  14.000   1.6844   0.07222   0.06432  -0.1275  0.0851  0.2500  -4.1470   0.0000   0.2996
  14.500   1.6870   0.07782   0.07016  -0.1263  0.0815  0.2500  -4.3759   0.0000   0.2976
  15.000   1.6869   0.08386   0.07639  -0.1253  0.0784  0.2500  -4.5943   0.0000   0.2959
  15.500   1.6843   0.09027   0.08297  -0.1246  0.0755  0.2500  -4.8013   0.0000   0.2944
  16.000   1.6829   0.09622   0.08908  -0.1237  0.0724  0.2500  -5.0149   0.0000   0.2927
  16.500   1.6882   0.10166   0.09481  -0.1235  0.0708  0.2500  -5.2656   0.0000   0.2911
  17.000   1.6909   0.10764   0.10109  -0.1238  0.0688  0.2500  -5.5194   0.0000   0.2899
  17.500   1.6924   0.11382   0.10755  -0.1245  0.0664  0.2500  -5.7789   0.0000   0.2890
  18.000   1.6937   0.12003   0.11402  -0.1254  0.0643  0.2500  -6.0377   0.0000   0.2882
  18.500   1.6919   0.12684   0.12107  -0.1271  0.0621  0.2500  -6.2778   0.0000   0.2879
  19.000   1.6874   0.13411   0.12851  -0.1294  0.0594  0.2500  -6.5010   0.0000   0.2881
  19.500   1.6839   0.14113   0.13570  -0.1319  0.0563  0.2500  -6.7259   0.0000   0.2883
  20.000   1.6748   0.15014   0.14508  -0.1363  0.0537  0.2500  -6.8988   0.0000   0.2900


