xflr5 v6.42

 Calculated polar for: FX_63-137

 1 1 Reynolds number fixed          Mach number fixed         

 xtrf =   0.250 (top)        0.250 (bottom)
 Mach =   0.000     Re =     0.300 e 6     Ncrit =   5.000

  alpha     CL        CD       CDp       Cm    Top Xtr Bot Xtr   Cpmin    Chinge    XCp    
 ------- -------- --------- --------- -------- ------- ------- -------- --------- ---------
 -10.000  -0.0864   0.09533   0.08869  -0.0958  0.2500  0.0150  -1.9963   0.0000  -0.9405
  -9.500  -0.0813   0.08717   0.08056  -0.0997  0.2500  0.0145  -2.2261   0.0000  -1.0587
  -9.000  -0.0819   0.07778   0.07124  -0.1047  0.2500  0.0145  -2.5541   0.0000  -1.1069
  -8.500  -0.1809   0.03771   0.03088  -0.1461  0.2500  0.0142  -4.8511   0.0000  -0.5932
  -8.000  -0.1243   0.02850   0.02067  -0.1642  0.2500  0.0151  -4.8320   0.0000  -1.1196
  -7.500  -0.0608   0.02429   0.01575  -0.1710  0.2500  0.0160  -4.5505   0.0000  -2.6585
  -7.000   0.0022   0.02234   0.01331  -0.1746  0.2500  0.0173  -4.1423   0.0000  83.5696
  -6.500   0.0653   0.02004   0.01073  -0.1781  0.2500  0.0185  -3.7437   0.0000   3.0511
  -6.000   0.1284   0.01864   0.00912  -0.1806  0.2500  0.0195  -3.3349   0.0000   1.6917
  -5.500   0.1926   0.01751   0.00780  -0.1831  0.2500  0.0212  -2.9337   0.0000   1.2222
  -5.000   0.2576   0.01665   0.00676  -0.1857  0.2500  0.0231  -2.5367   0.0000   0.9853
  -4.500   0.3244   0.01585   0.00585  -0.1887  0.2500  0.0267  -2.2064   0.0000   0.8421
  -4.000   0.3892   0.01534   0.00525  -0.1910  0.2500  0.0339  -1.8883   0.0000   0.7484
  -3.500   0.4539   0.01491   0.00475  -0.1933  0.2500  0.0494  -1.5883   0.0000   0.6812
  -3.000   0.5203   0.01441   0.00445  -0.1961  0.2500  0.1197  -1.2789   0.0000   0.6308
  -2.500   0.5871   0.01393   0.00427  -0.1992  0.2500  0.2500  -0.9754   0.0000   0.5918
  -2.000   0.6446   0.01405   0.00422  -0.1994  0.2500  0.2500  -0.8697   0.0000   0.5608
  -1.500   0.7015   0.01420   0.00423  -0.1995  0.2500  0.2500  -0.9158   0.0000   0.5349
  -1.000   0.7579   0.01436   0.00429  -0.1995  0.2500  0.2500  -0.9619   0.0000   0.5129
  -0.500   0.8138   0.01455   0.00440  -0.1995  0.2500  0.2500  -1.0105   0.0000   0.4940
   0.000   0.8692   0.01476   0.00454  -0.1993  0.2500  0.2500  -1.0607   0.0000   0.4774
   0.500   0.9241   0.01498   0.00473  -0.1991  0.2500  0.2500  -1.1111   0.0000   0.4628
   1.000   0.9783   0.01522   0.00496  -0.1988  0.2500  0.2500  -1.1614   0.0000   0.4499
   1.500   1.0319   0.01549   0.00523  -0.1984  0.2500  0.2500  -1.2169   0.0000   0.4382
   2.000   1.0848   0.01577   0.00555  -0.1978  0.2500  0.2500  -1.2750   0.0000   0.4276
   2.500   1.1371   0.01607   0.00588  -0.1972  0.2500  0.2500  -1.3391   0.0000   0.4179
   3.000   1.1884   0.01640   0.00626  -0.1964  0.2500  0.2500  -1.4069   0.0000   0.4091
   3.500   1.2389   0.01675   0.00671  -0.1954  0.2500  0.2500  -1.5089   0.0000   0.4009
   4.000   1.2882   0.01713   0.00717  -0.1943  0.2500  0.2500  -1.6357   0.0000   0.3932
   4.500   1.3362   0.01754   0.00768  -0.1929  0.2500  0.2500  -1.7749   0.0000   0.3860
   5.000   1.3829   0.01798   0.00827  -0.1913  0.2500  0.2500  -1.9185   0.0000   0.3792
   5.500   1.4271   0.01845   0.00888  -0.1893  0.2500  0.2500  -2.0615   0.0000   0.3727
   6.000   1.4670   0.01896   0.00954  -0.1864  0.2500  0.2500  -2.2008   0.0000   0.3664
   6.500   1.5083   0.01955   0.01033  -0.1839  0.2500  0.2500  -2.3448   0.0000   0.3604
   7.000   1.5490   0.02022   0.01118  -0.1814  0.2500  0.2500  -2.5052   0.0000   0.3548
   7.500   1.5888   0.02094   0.01213  -0.1788  0.2500  0.2500  -2.6672   0.0000   0.3494
   8.500   1.6467   0.02362   0.01498  -0.1708  0.2181  0.2500  -2.9594   0.0000   0.3389
   9.000   1.6619   0.02592   0.01723  -0.1653  0.1848  0.2500  -3.0820   0.0000   0.3337
   9.500   1.6707   0.02888   0.02007  -0.1597  0.1517  0.2500  -3.1921   0.0000   0.3289
  10.000   1.6802   0.03207   0.02323  -0.1548  0.1260  0.2500  -3.3142   0.0000   0.3245
  10.500   1.6894   0.03551   0.02669  -0.1504  0.1096  0.2500  -3.4370   0.0000   0.3204
  11.000   1.7025   0.03882   0.03016  -0.1469  0.1006  0.2500  -3.5685   0.0000   0.3166
  11.500   1.7095   0.04285   0.03429  -0.1432  0.0924  0.2500  -3.6858   0.0000   0.3131
  12.000   1.7192   0.04677   0.03841  -0.1402  0.0878  0.2500  -3.8087   0.0000   0.3098
  12.500   1.7283   0.05094   0.04278  -0.1375  0.0839  0.2500  -3.9306   0.0000   0.3068
  13.000   1.7326   0.05578   0.04781  -0.1350  0.0797  0.2500  -4.0475   0.0000   0.3040
  13.500   1.7325   0.06134   0.05352  -0.1328  0.0756  0.2500  -4.1712   0.0000   0.3016
  14.000   1.7281   0.06752   0.05988  -0.1307  0.0721  0.2500  -4.3710   0.0000   0.2995
  14.500   1.7336   0.07274   0.06536  -0.1294  0.0707  0.2500  -4.6219   0.0000   0.2973
  15.000   1.7369   0.07834   0.07122  -0.1283  0.0690  0.2500  -4.8656   0.0000   0.2953
  15.500   1.7386   0.08422   0.07736  -0.1274  0.0671  0.2500  -5.1049   0.0000   0.2936
  16.000   1.7393   0.09033   0.08368  -0.1270  0.0648  0.2500  -5.3415   0.0000   0.2921
  16.500   1.7371   0.09684   0.09038  -0.1268  0.0625  0.2500  -5.5805   0.0000   0.2908
  17.000   1.7318   0.10391   0.09764  -0.1271  0.0603  0.2500  -5.8106   0.0000   0.2900
  17.500   1.7241   0.11128   0.10517  -0.1277  0.0575  0.2500  -6.0230   0.0000   0.2894
  18.000   1.7247   0.11779   0.11193  -0.1289  0.0555  0.2500  -6.2920   0.0000   0.2887
  18.500   1.7252   0.12447   0.11887  -0.1305  0.0527  0.2500  -6.5620   0.0000   0.2882
  19.000   1.7225   0.13167   0.12629  -0.1327  0.0496  0.2500  -6.8102   0.0000   0.2882
  19.500   1.7146   0.13972   0.13448  -0.1355  0.0469  0.2500  -7.0162   0.0000   0.2889
  20.000   1.7044   0.14817   0.14308  -0.1389  0.0444  0.2500  -7.1954   0.0000   0.2899


