xflr5 v6.42

 Calculated polar for: FX_60-126

 1 1 Reynolds number fixed          Mach number fixed         

 xtrf =   0.250 (top)        0.250 (bottom)
 Mach =   0.000     Re =     0.015 e 6     Ncrit =   5.000

  alpha     CL        CD       CDp       Cm    Top Xtr Bot Xtr   Cpmin    Chinge    XCp    
 ------- -------- --------- --------- -------- ------- ------- -------- --------- ---------
 -10.000  -0.3289   0.12928   0.11408  -0.0387  0.2500  0.1193  -1.7399   0.0000   0.1185
  -9.500  -0.3218   0.12183   0.10677  -0.0418  0.2500  0.1181  -1.8131   0.0000   0.1066
  -9.000  -0.3149   0.11442   0.09952  -0.0448  0.2500  0.1186  -1.8834   0.0000   0.0947
  -8.500  -0.3089   0.10703   0.09222  -0.0477  0.2500  0.1201  -1.9555   0.0000   0.0830
  -8.000  -0.3058   0.09959   0.08498  -0.0508  0.2500  0.1219  -2.0399   0.0000   0.0718
  -7.500  -0.3022   0.09138   0.07697  -0.0557  0.2500  0.1240  -2.1449   0.0000   0.0542
  -7.000  -0.2981   0.08194   0.06770  -0.0626  0.2500  0.1260  -2.2792   0.0000   0.0287
  -6.500  -0.2912   0.07161   0.05732  -0.0711  0.2500  0.1290  -2.4353   0.0000  -0.0050
  -6.000  -0.2718   0.06207   0.04739  -0.0786  0.2500  0.1361  -2.5495   0.0000  -0.0500
  -5.500  -0.2369   0.05436   0.03902  -0.0837  0.2500  0.1561  -2.6002   0.0000  -0.1151
  -5.000  -0.2019   0.05132   0.03660  -0.0812  0.2500  0.2226  -2.5388   0.0000  -0.1642
  -4.500  -0.1506   0.04280   0.02748  -0.0819  0.2500  0.2500  -2.7458   0.0000  -0.3094
  -4.000  -0.0993   0.04074   0.02403  -0.0815  0.2500  0.2500  -2.5615   0.0000  -0.5914
  -3.500  -0.0460   0.03948   0.02149  -0.0823  0.2500  0.2500  -2.2772   0.0000  -1.5772
  -3.000   0.0082   0.03858   0.01954  -0.0833  0.2500  0.2500  -1.9579   0.0000  10.5356
  -2.500   0.0629   0.03796   0.01800  -0.0843  0.2500  0.2500  -1.6254   0.0000   1.6098
  -2.000   0.1174   0.03756   0.01677  -0.0853  0.2500  0.2500  -1.2931   0.0000   0.9839
  -1.500   0.1715   0.03737   0.01590  -0.0861  0.2500  0.2500  -0.9697   0.0000   0.7556
  -1.000   0.2248   0.03735   0.01530  -0.0868  0.2500  0.2500  -0.6613   0.0000   0.6371
  -0.500   0.2773   0.03750   0.01499  -0.0872  0.2500  0.2500  -0.6151   0.0000   0.5643
   0.000   0.3286   0.03780   0.01494  -0.0875  0.2500  0.2500  -0.6521   0.0000   0.5150
   0.500   0.3787   0.03825   0.01511  -0.0876  0.2500  0.2500  -0.6941   0.0000   0.4791
   1.000   0.4275   0.03884   0.01554  -0.0875  0.2500  0.2500  -0.7383   0.0000   0.4519
   1.500   0.4749   0.03957   0.01618  -0.0873  0.2500  0.2500  -0.7834   0.0000   0.4303
   2.000   0.5207   0.04044   0.01707  -0.0869  0.2500  0.2500  -0.8343   0.0000   0.4128
   2.500   0.5646   0.04149   0.01821  -0.0863  0.2500  0.2500  -0.8873   0.0000   0.3983
   3.000   0.6063   0.04270   0.01963  -0.0856  0.2500  0.2500  -0.9517   0.0000   0.3860
   3.500   0.6462   0.04411   0.02125  -0.0847  0.2500  0.2500  -1.0175   0.0000   0.3755
   4.000   0.6837   0.04578   0.02319  -0.0839  0.2500  0.2500  -1.0969   0.0000   0.3665
   4.500   0.7197   0.04771   0.02555  -0.0831  0.2500  0.2500  -1.1747   0.0000   0.3587
   5.000   0.7539   0.05000   0.02820  -0.0825  0.2500  0.2500  -1.2503   0.0000   0.3521
   5.500   0.7861   0.05262   0.03124  -0.0820  0.2500  0.2500  -1.3290   0.0000   0.3465
   6.000   0.8157   0.05563   0.03470  -0.0816  0.2500  0.2500  -1.4098   0.0000   0.3416
   6.500   0.8426   0.05907   0.03878  -0.0813  0.2500  0.2500  -1.4858   0.0000   0.3375
   7.000   0.8673   0.06286   0.04311  -0.0812  0.2500  0.2500  -1.5643   0.0000   0.3339
   7.500   0.8905   0.06700   0.04780  -0.0811  0.2500  0.2500  -1.6624   0.0000   0.3307
   8.000   0.9125   0.07143   0.05286  -0.0810  0.2500  0.2500  -1.7745   0.0000   0.3279
   8.500   0.9335   0.07621   0.05822  -0.0811  0.2500  0.2500  -1.8827   0.0000   0.3253
   9.000   0.9529   0.08152   0.06409  -0.0812  0.2500  0.2500  -1.9837   0.0000   0.3231
   9.500   0.9721   0.08708   0.07027  -0.0814  0.2500  0.2500  -2.0812   0.0000   0.3210
  10.000   0.9893   0.09345   0.07722  -0.0819  0.2500  0.2500  -2.1650   0.0000   0.3194
  10.500   1.0014   0.10149   0.08579  -0.0833  0.2500  0.2500  -2.2188   0.0000   0.3192
  11.000   1.0054   0.11178   0.09654  -0.0859  0.2500  0.2500  -2.2272   0.0000   0.3210
  11.500   1.0029   0.12372   0.10883  -0.0895  0.2500  0.2500  -2.1961   0.0000   0.3244
  12.000   0.9975   0.13638   0.12178  -0.0938  0.2500  0.2500  -2.1414   0.0000   0.3288
  12.500   0.9923   0.14903   0.13468  -0.0985  0.2500  0.2500  -2.0769   0.0000   0.3336
  13.000   0.9884   0.16128   0.14722  -0.1033  0.2500  0.2500  -2.0092   0.0000   0.3384
  13.500   0.9864   0.17296   0.15911  -0.1080  0.2500  0.2500  -1.9416   0.0000   0.3429
  14.000   0.9864   0.18404   0.17038  -0.1127  0.2500  0.2500  -1.8801   0.0000   0.3472
  14.500   0.9879   0.19440   0.18092  -0.1173  0.2500  0.2500  -1.8356   0.0000   0.3510
  15.000   0.9913   0.20417   0.19086  -0.1217  0.2500  0.2500  -1.7934   0.0000   0.3545
  15.500   0.9967   0.21355   0.20042  -0.1261  0.2500  0.2500  -1.7536   0.0000   0.3576
  16.000   1.0039   0.22253   0.20957  -0.1305  0.2493  0.2500  -1.7547   0.0000   0.3604
  16.500   1.0231   0.23062   0.21788  -0.1321  0.2334  0.2500  -1.9389   0.0000   0.3587
  17.000   1.0282   0.23834   0.22573  -0.1370  0.2299  0.2500  -1.9932   0.0000   0.3620
  18.000   1.0459   0.25691   0.24472  -0.1481  0.2500  0.2500  -2.0953   0.0000   0.3688
  18.500   1.0585   0.26511   0.25309  -0.1525  0.2500  0.2500  -2.1908   0.0000   0.3704
  19.000   1.0717   0.27322   0.26139  -0.1570  0.2500  0.2500  -2.2868   0.0000   0.3719
  19.500   1.0853   0.28127   0.26963  -0.1614  0.2500  0.2500  -2.3813   0.0000   0.3732
  20.000   1.0993   0.28929   0.27785  -0.1660  0.2500  0.2500  -2.4714   0.0000   0.3745


