xflr5 v6.42

 Calculated polar for: FX_60-126

 1 1 Reynolds number fixed          Mach number fixed         

 xtrf =   0.250 (top)        0.250 (bottom)
 Mach =   0.000     Re =     1.000 e 6     Ncrit =   5.000

  alpha     CL        CD       CDp       Cm    Top Xtr Bot Xtr   Cpmin    Chinge    XCp    
 ------- -------- --------- --------- -------- ------- ------- -------- --------- ---------
 -10.000  -0.3315   0.09253   0.08811  -0.0511  0.2500  0.0073  -2.8327   0.0000   0.0798
  -9.500  -0.3357   0.08140   0.07703  -0.0570  0.2500  0.0073  -3.1464   0.0000   0.0645
  -9.000  -0.3984   0.05140   0.04684  -0.0808  0.2500  0.0071  -4.6577   0.0000   0.0330
  -8.500  -0.3912   0.03837   0.03339  -0.1042  0.2500  0.0071  -4.8538   0.0000  -0.0295
  -8.000  -0.3532   0.03220   0.02679  -0.1119  0.2500  0.0073  -4.6293   0.0000  -0.0801
  -7.500  -0.3055   0.02757   0.02173  -0.1163  0.2500  0.0076  -4.3193   0.0000  -0.1448
  -7.000  -0.2522   0.02392   0.01765  -0.1193  0.2500  0.0080  -3.9804   0.0000  -0.2385
  -6.500  -0.1956   0.02108   0.01441  -0.1214  0.2500  0.0085  -3.6322   0.0000  -0.3882
  -4.000   0.0984   0.01371   0.00603  -0.1263  0.2500  0.0146  -1.7466   0.0000   1.5518
  -3.500   0.1626   0.01189   0.00407  -0.1280  0.2500  0.0082  -1.6680   0.0000   1.0469
  -3.000   0.2227   0.01154   0.00362  -0.1286  0.2500  0.0066  -1.3550   0.0000   0.8330
  -2.500   0.2847   0.01089   0.00283  -0.1299  0.2500  0.0058  -1.0763   0.0000   0.7094
  -2.000   0.3448   0.01059   0.00243  -0.1306  0.2500  0.0055  -0.7661   0.0000   0.6304
  -1.500   0.4042   0.01043   0.00219  -0.1311  0.2500  0.0053  -0.6783   0.0000   0.5750
  -1.000   0.4631   0.01034   0.00205  -0.1315  0.2500  0.0053  -0.7234   0.0000   0.5337
  -0.500   0.5216   0.01030   0.00199  -0.1319  0.2500  0.0058  -0.7689   0.0000   0.5018
   0.000   0.5801   0.01024   0.00197  -0.1323  0.2500  0.0439  -0.8146   0.0000   0.4764
   0.500   0.6418   0.00967   0.00194  -0.1340  0.2500  0.2500  -0.8728   0.0000   0.4565
   1.000   0.6992   0.00977   0.00204  -0.1341  0.2500  0.2500  -0.9387   0.0000   0.4390
   1.500   0.7565   0.00988   0.00216  -0.1342  0.2500  0.2500  -1.0080   0.0000   0.4241
   2.000   0.8135   0.01000   0.00230  -0.1343  0.2500  0.2500  -1.0925   0.0000   0.4113
   2.500   0.8703   0.01012   0.00246  -0.1344  0.2500  0.2500  -1.2012   0.0000   0.4000
   3.000   0.9267   0.01027   0.00265  -0.1344  0.2477  0.2500  -1.3127   0.0000   0.3901
   3.500   0.9776   0.01101   0.00311  -0.1337  0.1912  0.2500  -1.4235   0.0000   0.3812
   4.500   1.0748   0.01287   0.00436  -0.1314  0.0755  0.2500  -1.7313   0.0000   0.3656
   5.000   1.1237   0.01368   0.00501  -0.1303  0.0447  0.2500  -1.9316   0.0000   0.3587
   5.500   1.1730   0.01438   0.00563  -0.1293  0.0292  0.2500  -2.1406   0.0000   0.3524
   6.000   1.2237   0.01490   0.00617  -0.1284  0.0235  0.2500  -2.3582   0.0000   0.3465
   6.500   1.2734   0.01545   0.00675  -0.1275  0.0194  0.2500  -2.5948   0.0000   0.3410
   7.000   1.3166   0.01656   0.00782  -0.1255  0.0026  0.2500  -2.8207   0.0000   0.3354
   7.500   1.3638   0.01719   0.00851  -0.1241  0.0022  0.2500  -3.0494   0.0000   0.3305
   8.000   1.4092   0.01790   0.00929  -0.1225  0.0021  0.2500  -3.2827   0.0000   0.3256
   8.500   1.4526   0.01869   0.01015  -0.1206  0.0021  0.2500  -3.5179   0.0000   0.3210
   9.000   1.4934   0.01956   0.01112  -0.1183  0.0021  0.2500  -3.7531   0.0000   0.3164
   9.500   1.5306   0.02054   0.01222  -0.1154  0.0020  0.2500  -4.1487   0.0000   0.3118
  10.000   1.5576   0.02165   0.01346  -0.1107  0.0018  0.2500  -4.6425   0.0000   0.3067
  10.500   1.5841   0.02300   0.01494  -0.1064  0.0018  0.2500  -5.1485   0.0000   0.3020
  11.000   1.6069   0.02468   0.01680  -0.1020  0.0016  0.2500  -5.6530   0.0000   0.2974
  11.500   1.6243   0.02689   0.01920  -0.0976  0.0014  0.2500  -6.1403   0.0000   0.2931
  12.000   1.6316   0.03018   0.02274  -0.0929  0.0011  0.2500  -6.5113   0.0000   0.2891
  12.500   1.6509   0.03271   0.02541  -0.0901  0.0010  0.2500  -7.0844   0.0000   0.2858
  13.000   1.6671   0.03571   0.02854  -0.0876  0.0009  0.2500  -7.6460   0.0000   0.2828
  13.500   1.6782   0.03932   0.03233  -0.0852  0.0008  0.2500  -8.1659   0.0000   0.2800
  14.000   1.6843   0.04366   0.03687  -0.0830  0.0007  0.2500  -8.6310   0.0000   0.2775
  14.500   1.6850   0.04885   0.04226  -0.0814  0.0006  0.2500  -9.0441   0.0000   0.2754
  15.000   1.6806   0.05485   0.04847  -0.0802  0.0005  0.2500  -9.4100   0.0000   0.2737
  15.500   1.6725   0.06185   0.05570  -0.0799  0.0004  0.2500  -9.7398   0.0000   0.2726
  16.000   1.6606   0.06983   0.06390  -0.0805  0.0004  0.2500  -10.0326   0.0000   0.2722
  16.500   1.6440   0.07877   0.07308  -0.0818  0.0003  0.2500  -10.2740   0.0000   0.2723
  17.000   1.6234   0.08878   0.08332  -0.0840  0.0003  0.2500  -10.4633   0.0000   0.2731
  17.500   1.5979   0.09998   0.09477  -0.0872  0.0003  0.2500  -10.5813   0.0000   0.2748
  18.000   1.5672   0.11232   0.10737  -0.0914  0.0003  0.2500  -10.6143   0.0000   0.2774
  18.500   1.5332   0.12580   0.12110  -0.0967  0.0003  0.2500  -10.5690   0.0000   0.2810
  19.000   1.4970   0.14032   0.13587  -0.1033  0.0003  0.2500  -10.4432   0.0000   0.2859
  19.500   1.4594   0.15572   0.15152  -0.1111  0.0003  0.2500  -10.2332   0.0000   0.2920
  20.000   1.4223   0.17173   0.16777  -0.1199  0.0003  0.2500  -9.9534   0.0000   0.2993


