xflr5 v6.42

 Calculated polar for: FX_63-137

 1 1 Reynolds number fixed          Mach number fixed         

 xtrf =   0.250 (top)        0.250 (bottom)
 Mach =   0.000     Re =     1.000 e 6     Ncrit =   5.000

  alpha     CL        CD       CDp       Cm    Top Xtr Bot Xtr   Cpmin    Chinge    XCp    
 ------- -------- --------- --------- -------- ------- ------- -------- --------- ---------
 -10.000  -0.3145   0.01934   0.01268  -0.1761  0.2500  0.0092  -7.9114   0.0000  -0.3375
  -9.500  -0.2531   0.01808   0.01124  -0.1793  0.2500  0.0095  -7.2751   0.0000  -0.4902
  -9.000  -0.1911   0.01703   0.01002  -0.1820  0.2500  0.0099  -6.6545   0.0000  -0.7416
  -8.500  -0.1284   0.01605   0.00888  -0.1847  0.2500  0.0103  -6.0578   0.0000  -1.2421
  -8.000  -0.0650   0.01515   0.00781  -0.1872  0.2500  0.0107  -5.4835   0.0000  -2.7291
  -7.500  -0.0011   0.01436   0.00686  -0.1897  0.2500  0.0111  -4.9301   0.0000  -174.9685
  -7.000   0.0630   0.01368   0.00604  -0.1920  0.2500  0.0116  -4.3969   0.0000   3.3883
  -6.500   0.1264   0.01316   0.00540  -0.1941  0.2500  0.0121  -3.8810   0.0000   1.8258
  -6.000   0.1901   0.01269   0.00482  -0.1961  0.2500  0.0128  -3.3882   0.0000   1.3062
  -5.500   0.2548   0.01219   0.00423  -0.1983  0.2500  0.0144  -2.9251   0.0000   1.0450
  -5.000   0.3172   0.01192   0.00389  -0.1998  0.2500  0.0159  -2.5374   0.0000   0.8921
  -4.500   0.3790   0.01172   0.00361  -0.2012  0.2500  0.0172  -2.1786   0.0000   0.7899
  -4.000   0.4413   0.01149   0.00335  -0.2026  0.2500  0.0209  -1.8396   0.0000   0.7160
  -3.500   0.5027   0.01135   0.00318  -0.2038  0.2500  0.0275  -1.5141   0.0000   0.6606
  -3.000   0.5646   0.01118   0.00306  -0.2052  0.2500  0.0497  -1.2014   0.0000   0.6172
  -2.500   0.6274   0.01096   0.00298  -0.2069  0.2500  0.1003  -0.9037   0.0000   0.5823
  -2.000   0.6922   0.01063   0.00292  -0.2093  0.2500  0.2145  -0.8867   0.0000   0.5537
  -1.500   0.7518   0.01062   0.00295  -0.2101  0.2500  0.2500  -0.9383   0.0000   0.5299
  -1.000   0.8092   0.01075   0.00302  -0.2103  0.2500  0.2500  -0.9892   0.0000   0.5095
  -0.500   0.8662   0.01088   0.00311  -0.2104  0.2500  0.2500  -1.0403   0.0000   0.4918
   0.000   0.9229   0.01103   0.00322  -0.2105  0.2500  0.2500  -1.0917   0.0000   0.4762
   0.500   0.9792   0.01118   0.00336  -0.2105  0.2500  0.2500  -1.1432   0.0000   0.4624
   1.000   1.0352   0.01135   0.00351  -0.2105  0.2500  0.2500  -1.1950   0.0000   0.4500
   1.500   1.0908   0.01152   0.00369  -0.2104  0.2500  0.2500  -1.2543   0.0000   0.4389
   2.000   1.1459   0.01171   0.00390  -0.2103  0.2500  0.2500  -1.3166   0.0000   0.4288
   2.500   1.2006   0.01190   0.00412  -0.2101  0.2500  0.2500  -1.3867   0.0000   0.4195
   3.000   1.2547   0.01211   0.00437  -0.2098  0.2500  0.2500  -1.4642   0.0000   0.4110
   3.500   1.3083   0.01233   0.00463  -0.2094  0.2500  0.2500  -1.5957   0.0000   0.4031
   4.000   1.3613   0.01256   0.00492  -0.2089  0.2500  0.2500  -1.7395   0.0000   0.3958
   4.500   1.4137   0.01281   0.00524  -0.2083  0.2500  0.2500  -1.8912   0.0000   0.3889
   5.000   1.4653   0.01307   0.00558  -0.2075  0.2500  0.2500  -2.0454   0.0000   0.3825
   5.500   1.5160   0.01335   0.00595  -0.2066  0.2500  0.2500  -2.2020   0.0000   0.3764
   6.000   1.5584   0.01409   0.00660  -0.2043  0.2245  0.2500  -2.3494   0.0000   0.3704
   6.500   1.5968   0.01496   0.00736  -0.2012  0.1954  0.2500  -2.5079   0.0000   0.3645
   7.000   1.6241   0.01602   0.00829  -0.1960  0.1627  0.2500  -2.6500   0.0000   0.3583
   7.500   1.6463   0.01742   0.00950  -0.1900  0.1268  0.2500  -2.7849   0.0000   0.3523
   8.000   1.6734   0.01869   0.01070  -0.1852  0.1054  0.2500  -2.9308   0.0000   0.3467
   8.500   1.7006   0.02000   0.01199  -0.1806  0.0912  0.2500  -3.0789   0.0000   0.3414
   9.000   1.7308   0.02118   0.01323  -0.1768  0.0847  0.2500  -3.2352   0.0000   0.3364
   9.500   1.7568   0.02268   0.01475  -0.1725  0.0781  0.2500  -3.3973   0.0000   0.3315
  10.000   1.7823   0.02428   0.01644  -0.1685  0.0719  0.2500  -3.5628   0.0000   0.3269
  10.500   1.8084   0.02594   0.01821  -0.1648  0.0695  0.2500  -3.7333   0.0000   0.3226
  11.000   1.8314   0.02796   0.02032  -0.1611  0.0662  0.2500  -3.8986   0.0000   0.3184
  11.500   1.8512   0.03034   0.02278  -0.1574  0.0628  0.2500  -4.0580   0.0000   0.3144
  12.000   1.8681   0.03306   0.02561  -0.1537  0.0591  0.2500  -4.2104   0.0000   0.3106
  12.500   1.8847   0.03595   0.02864  -0.1504  0.0566  0.2500  -4.4284   0.0000   0.3070
  13.000   1.9027   0.03885   0.03168  -0.1475  0.0554  0.2500  -4.7520   0.0000   0.3037
  13.500   1.9170   0.04220   0.03516  -0.1446  0.0532  0.2500  -5.0672   0.0000   0.3005
  14.000   1.9260   0.04615   0.03922  -0.1417  0.0501  0.2500  -5.3641   0.0000   0.2975
  14.500   1.9307   0.05071   0.04388  -0.1389  0.0464  0.2500  -5.6453   0.0000   0.2947
  15.000   1.9366   0.05536   0.04868  -0.1366  0.0441  0.2500  -5.9657   0.0000   0.2920
  15.500   1.9442   0.05994   0.05342  -0.1347  0.0426  0.2500  -6.3056   0.0000   0.2895
  16.000   1.9469   0.06521   0.05883  -0.1330  0.0406  0.2500  -6.6228   0.0000   0.2873
  16.500   1.9437   0.07125   0.06500  -0.1314  0.0378  0.2500  -6.9093   0.0000   0.2853
  17.000   1.9376   0.07785   0.07173  -0.1302  0.0350  0.2500  -7.1797   0.0000   0.2836
  17.500   1.9332   0.08440   0.07846  -0.1295  0.0335  0.2500  -7.4626   0.0000   0.2821
  18.000   1.9265   0.09137   0.08560  -0.1292  0.0316  0.2500  -7.7317   0.0000   0.2808
  18.500   1.9132   0.09922   0.09359  -0.1293  0.0287  0.2500  -7.9559   0.0000   0.2799
  19.000   1.8974   0.10757   0.10207  -0.1299  0.0257  0.2500  -8.1589   0.0000   0.2794
  19.500   1.8802   0.11632   0.11097  -0.1312  0.0222  0.2500  -8.3457   0.0000   0.2793
  20.000   1.8577   0.12604   0.12081  -0.1334  0.0183  0.2500  -8.4831   0.0000   0.2799


