xflr5 v6.42

 Calculated polar for: FX_60-126

 1 1 Reynolds number fixed          Mach number fixed         

 xtrf =   0.250 (top)        0.250 (bottom)
 Mach =   0.000     Re =     0.550 e 6     Ncrit =   5.000

  alpha     CL        CD       CDp       Cm    Top Xtr Bot Xtr   Cpmin    Chinge    XCp    
 ------- -------- --------- --------- -------- ------- ------- -------- --------- ---------
 -10.000  -0.3141   0.09703   0.09196  -0.0507  0.2500  0.0145  -2.4155   0.0000   0.0722
  -9.500  -0.3124   0.08628   0.08124  -0.0563  0.2500  0.0146  -2.6139   0.0000   0.0535
  -9.000  -0.3287   0.06949   0.06443  -0.0682  0.2500  0.0146  -3.1155   0.0000   0.0267
  -8.500  -0.0994   0.00965   0.00505  -0.0983  0.2500  0.0190  -2.3439   0.0000  -0.7519
  -8.000  -0.1680   0.00564   0.00090  -0.0986  0.2500  0.0176  -2.6262   0.0000  -0.3462
  -7.500  -0.2102   0.00292  -0.00207  -0.1007  0.2500  0.0173  -2.7823   0.0000  -0.2368
  -7.000  -0.1939   0.00124  -0.00408  -0.1015  0.2500  0.0189  -2.6450   0.0000  -0.2810
  -6.500  -0.1655   0.00036  -0.00537  -0.1022  0.2500  0.0229  -2.4494   0.0000  -0.3750
  -5.500  -0.0751   0.00006  -0.00656  -0.1009  0.2500  0.0146  -2.2061   0.0000  -1.1044
  -4.500   0.0307   0.01529   0.00671  -0.1231  0.2500  0.0087  -2.3524   0.0000   4.3298
  -4.000   0.0917   0.01413   0.00540  -0.1243  0.2500  0.0076  -2.0800   0.0000   1.6255
  -3.500   0.1526   0.01340   0.00455  -0.1254  0.2500  0.0070  -1.7526   0.0000   1.0819
  -3.000   0.2132   0.01284   0.00390  -0.1264  0.2500  0.0067  -1.3964   0.0000   0.8489
  -2.500   0.2736   0.01238   0.00332  -0.1274  0.2500  0.0065  -1.0634   0.0000   0.7188
  -2.000   0.3336   0.01206   0.00284  -0.1281  0.2500  0.0064  -0.7620   0.0000   0.6358
  -1.500   0.3928   0.01188   0.00255  -0.1286  0.2500  0.0064  -0.6741   0.0000   0.5781
  -1.000   0.4514   0.01179   0.00238  -0.1290  0.2500  0.0068  -0.7193   0.0000   0.5355
  -0.500   0.5100   0.01170   0.00230  -0.1294  0.2500  0.0366  -0.7648   0.0000   0.5027
   0.000   0.5718   0.01104   0.00222  -0.1312  0.2500  0.2500  -0.8122   0.0000   0.4778
   0.500   0.6290   0.01115   0.00230  -0.1313  0.2500  0.2500  -0.8649   0.0000   0.4565
   1.000   0.6860   0.01127   0.00242  -0.1314  0.2500  0.2500  -0.9282   0.0000   0.4387
   1.500   0.7427   0.01140   0.00257  -0.1314  0.2500  0.2500  -0.9960   0.0000   0.4236
   2.000   0.7993   0.01154   0.00274  -0.1314  0.2500  0.2500  -1.0795   0.0000   0.4106
   2.500   0.8555   0.01169   0.00294  -0.1314  0.2500  0.2500  -1.1849   0.0000   0.3992
   3.000   0.9115   0.01186   0.00318  -0.1314  0.2500  0.2500  -1.2955   0.0000   0.3892
   3.500   0.9672   0.01204   0.00344  -0.1313  0.2500  0.2500  -1.4116   0.0000   0.3802
   4.000   1.0226   0.01224   0.00374  -0.1311  0.2500  0.2500  -1.5448   0.0000   0.3721
   4.500   1.0764   0.01257   0.00412  -0.1308  0.2403  0.2500  -1.7240   0.0000   0.3648
   5.000   1.1208   0.01383   0.00494  -0.1291  0.1605  0.2500  -1.9141   0.0000   0.3579
   5.500   1.1641   0.01513   0.00587  -0.1273  0.0953  0.2500  -2.1075   0.0000   0.3515
   6.000   1.2120   0.01588   0.00655  -0.1261  0.0757  0.2500  -2.3167   0.0000   0.3455
   6.500   1.2575   0.01680   0.00739  -0.1245  0.0533  0.2500  -2.5267   0.0000   0.3399
   7.000   1.3004   0.01787   0.00836  -0.1226  0.0319  0.2500  -2.7376   0.0000   0.3344
   7.500   1.3437   0.01878   0.00929  -0.1207  0.0234  0.2500  -2.9559   0.0000   0.3293
   8.000   1.3873   0.01957   0.01016  -0.1188  0.0201  0.2500  -3.1973   0.0000   0.3244
   8.500   1.4232   0.02084   0.01144  -0.1158  0.0093  0.2500  -3.4167   0.0000   0.3194
   9.000   1.4560   0.02213   0.01284  -0.1123  0.0033  0.2500  -3.6230   0.0000   0.3144
   9.500   1.4823   0.02333   0.01417  -0.1077  0.0030  0.2500  -3.8735   0.0000   0.3092
  10.000   1.5103   0.02473   0.01571  -0.1039  0.0028  0.2500  -4.3447   0.0000   0.3044
  10.500   1.5351   0.02641   0.01756  -0.1000  0.0026  0.2500  -4.8121   0.0000   0.3000
  11.000   1.5565   0.02846   0.01981  -0.0962  0.0023  0.2500  -5.2680   0.0000   0.2958
  11.500   1.5758   0.03087   0.02242  -0.0928  0.0021  0.2500  -5.7248   0.0000   0.2920
  12.000   1.5911   0.03380   0.02557  -0.0897  0.0020  0.2500  -6.1656   0.0000   0.2885
  12.500   1.6025   0.03733   0.02934  -0.0868  0.0019  0.2500  -6.5764   0.0000   0.2854
  13.000   1.6081   0.04160   0.03388  -0.0842  0.0017  0.2500  -6.9393   0.0000   0.2826
  13.500   1.6081   0.04676   0.03932  -0.0821  0.0016  0.2500  -7.2583   0.0000   0.2802
  14.000   1.6020   0.05290   0.04575  -0.0805  0.0014  0.2500  -7.5385   0.0000   0.2784
  14.500   1.5893   0.06030   0.05347  -0.0799  0.0013  0.2500  -7.7664   0.0000   0.2773
  15.000   1.5686   0.06946   0.06296  -0.0805  0.0012  0.2500  -7.9022   0.0000   0.2773
  15.500   1.5376   0.08077   0.07460  -0.0826  0.0011  0.2500  -7.9155   0.0000   0.2786
  16.000   1.5007   0.09389   0.08805  -0.0862  0.0011  0.2500  -7.8476   0.0000   0.2813
  16.500   1.4770   0.10541   0.09984  -0.0900  0.0010  0.2500  -7.9383   0.0000   0.2837
  17.000   1.4508   0.11767   0.11236  -0.0945  0.0010  0.2500  -7.9829   0.0000   0.2869
  17.500   1.4216   0.13109   0.12605  -0.1002  0.0010  0.2500  -7.9548   0.0000   0.2912
  18.000   1.3905   0.14548   0.14070  -0.1070  0.0010  0.2500  -7.8541   0.0000   0.2967
  18.500   1.3596   0.16037   0.15583  -0.1146  0.0010  0.2500  -7.6969   0.0000   0.3033
  19.000   1.3318   0.17540   0.17108  -0.1229  0.0010  0.2500  -7.5141   0.0000   0.3104
  19.500   1.3109   0.18965   0.18552  -0.1311  0.0010  0.2500  -7.3673   0.0000   0.3173
  20.000   1.2940   0.20366   0.19970  -0.1394  0.0010  0.2500  -7.2201   0.0000   0.3243


