xflr5 v6.42

 Calculated polar for: FX_63-137

 1 1 Reynolds number fixed          Mach number fixed         

 xtrf =   0.250 (top)        0.250 (bottom)
 Mach =   0.000     Re =     0.100 e 6     Ncrit =   5.000

  alpha     CL        CD       CDp       Cm    Top Xtr Bot Xtr   Cpmin    Chinge    XCp    
 ------- -------- --------- --------- -------- ------- ------- -------- --------- ---------
 -10.000  -0.0890   0.10467   0.09566  -0.0909  0.2500  0.0363  -1.6445   0.0000  -0.8462
  -9.500  -0.0781   0.09775   0.08878  -0.0935  0.2500  0.0338  -1.7428   0.0000  -1.0294
  -9.000  -0.0693   0.09081   0.08190  -0.0968  0.2500  0.0338  -1.8529   0.0000  -1.2341
  -8.500  -0.0624   0.08378   0.07494  -0.1006  0.2500  0.0358  -1.9661   0.0000  -1.4548
  -8.000  -0.0589   0.07596   0.06722  -0.1047  0.2500  0.0360  -2.1246   0.0000  -1.6191
  -7.500  -0.0636   0.06733   0.05871  -0.1092  0.2500  0.0347  -2.3411   0.0000  -1.5471
  -7.000  -0.0672   0.04453   0.03536  -0.1427  0.2500  0.0320  -3.1366   0.0000  -1.9456
  -6.500  -0.0075   0.03517   0.02487  -0.1572  0.2500  0.0322  -3.1775   0.0000  -21.2230
  -6.000   0.0585   0.03031   0.01921  -0.1638  0.2500  0.0337  -2.9898   0.0000   3.1205
  -5.500   0.1231   0.02701   0.01528  -0.1675  0.2500  0.0362  -2.7522   0.0000   1.6423
  -5.000   0.1847   0.02496   0.01295  -0.1699  0.2500  0.0419  -2.4374   0.0000   1.1891
  -4.500   0.2455   0.02336   0.01116  -0.1714  0.2500  0.0476  -2.1522   0.0000   0.9614
  -4.000   0.3101   0.02198   0.00967  -0.1740  0.2500  0.0570  -1.9220   0.0000   0.8201
  -3.500   0.3805   0.02080   0.00844  -0.1780  0.2500  0.0882  -1.6686   0.0000   0.7241
  -3.000   0.4569   0.01944   0.00758  -0.1840  0.2500  0.2500  -1.3775   0.0000   0.6570
  -2.500   0.5148   0.01951   0.00721  -0.1842  0.2500  0.2500  -1.1053   0.0000   0.6108
  -2.000   0.5719   0.01963   0.00700  -0.1844  0.2500  0.2500  -0.8395   0.0000   0.5742
  -1.500   0.6283   0.01980   0.00692  -0.1845  0.2500  0.2500  -0.8786   0.0000   0.5444
  -1.000   0.6839   0.02001   0.00692  -0.1845  0.2500  0.2500  -0.9238   0.0000   0.5195
  -0.500   0.7390   0.02026   0.00702  -0.1844  0.2500  0.2500  -0.9691   0.0000   0.4984
   0.000   0.7932   0.02054   0.00719  -0.1841  0.2500  0.2500  -1.0142   0.0000   0.4803
   0.500   0.8468   0.02087   0.00743  -0.1838  0.2500  0.2500  -1.0592   0.0000   0.4644
   1.000   0.8995   0.02122   0.00774  -0.1833  0.2500  0.2500  -1.1082   0.0000   0.4504
   1.500   0.9512   0.02161   0.00812  -0.1826  0.2500  0.2500  -1.1610   0.0000   0.4379
   2.000   1.0020   0.02204   0.00857  -0.1818  0.2500  0.2500  -1.2163   0.0000   0.4267
   2.500   1.0517   0.02251   0.00910  -0.1809  0.2500  0.2500  -1.2740   0.0000   0.4165
   3.000   1.1001   0.02302   0.00967  -0.1797  0.2500  0.2500  -1.3359   0.0000   0.4071
   3.500   1.1473   0.02358   0.01032  -0.1783  0.2500  0.2500  -1.3996   0.0000   0.3985
   4.000   1.1929   0.02418   0.01108  -0.1767  0.2500  0.2500  -1.5108   0.0000   0.3905
   4.500   1.2364   0.02484   0.01188  -0.1747  0.2500  0.2500  -1.6294   0.0000   0.3830
   5.000   1.2763   0.02556   0.01277  -0.1721  0.2500  0.2500  -1.7520   0.0000   0.3758
   5.500   1.3162   0.02637   0.01382  -0.1697  0.2500  0.2500  -1.8833   0.0000   0.3690
   6.000   1.3555   0.02727   0.01494  -0.1672  0.2500  0.2500  -2.0163   0.0000   0.3627
   6.500   1.3935   0.02827   0.01618  -0.1647  0.2500  0.2500  -2.1496   0.0000   0.3568
   7.000   1.4299   0.02938   0.01760  -0.1621  0.2500  0.2500  -2.2824   0.0000   0.3511
   7.500   1.4645   0.03063   0.01914  -0.1593  0.2500  0.2500  -2.4214   0.0000   0.3457
   8.000   1.4977   0.03201   0.02083  -0.1564  0.2500  0.2500  -2.5666   0.0000   0.3405
   8.500   1.5291   0.03355   0.02275  -0.1535  0.2500  0.2500  -2.7101   0.0000   0.3356
   9.000   1.5589   0.03526   0.02483  -0.1506  0.2500  0.2500  -2.8520   0.0000   0.3309
   9.500   1.5872   0.03715   0.02715  -0.1477  0.2500  0.2500  -2.9915   0.0000   0.3264
  10.000   1.6141   0.03921   0.02964  -0.1447  0.2500  0.2500  -3.1280   0.0000   0.3221
  10.500   1.6263   0.04245   0.03313  -0.1408  0.2319  0.2500  -3.2474   0.0000   0.3181
  11.000   1.6214   0.04730   0.03797  -0.1363  0.2024  0.2500  -3.3312   0.0000   0.3145
  11.500   1.6137   0.05276   0.04348  -0.1323  0.1772  0.2500  -3.4055   0.0000   0.3114
  12.000   1.6075   0.05848   0.04929  -0.1291  0.1568  0.2500  -3.4794   0.0000   0.3087
  12.500   1.6033   0.06430   0.05525  -0.1265  0.1418  0.2500  -3.5545   0.0000   0.3062
  13.000   1.5945   0.07079   0.06176  -0.1243  0.1305  0.2500  -3.6173   0.0000   0.3042
  13.500   1.5971   0.07628   0.06753  -0.1226  0.1213  0.2500  -3.7082   0.0000   0.3019
  14.000   1.5955   0.08232   0.07370  -0.1213  0.1140  0.2500  -3.7973   0.0000   0.3001
  14.500   1.6003   0.08739   0.07890  -0.1197  0.1084  0.2500  -3.9091   0.0000   0.2978
  15.000   1.6078   0.09241   0.08427  -0.1187  0.1038  0.2500  -4.1424   0.0000   0.2956
  15.500   1.6128   0.09781   0.08996  -0.1180  0.0992  0.2500  -4.3684   0.0000   0.2939
  16.000   1.6167   0.10337   0.09573  -0.1178  0.0948  0.2500  -4.5939   0.0000   0.2923
  16.500   1.6306   0.10701   0.09937  -0.1164  0.0900  0.2500  -4.8773   0.0000   0.2897
  17.000   1.6290   0.11384   0.10672  -0.1173  0.0878  0.2500  -5.0648   0.0000   0.2891
  17.500   1.6233   0.12140   0.11472  -0.1190  0.0852  0.2500  -5.2244   0.0000   0.2892
  18.000   1.6124   0.13009   0.12384  -0.1217  0.0825  0.2500  -5.3574   0.0000   0.2901
  18.500   1.5967   0.13997   0.13410  -0.1259  0.0797  0.2500  -5.4560   0.0000   0.2923
  19.000   1.5816   0.15009   0.14453  -0.1309  0.0770  0.2500  -5.5480   0.0000   0.2949
  19.500   1.5714   0.15938   0.15407  -0.1357  0.0745  0.2500  -5.6656   0.0000   0.2972
  20.000   1.5458   0.17244   0.16740  -0.1433  0.0721  0.2500  -5.6248   0.0000   0.3024


