xflr5 v6.42

 Calculated polar for: FX_63-137

 1 1 Reynolds number fixed          Mach number fixed         

 xtrf =   0.250 (top)        0.250 (bottom)
 Mach =   0.000     Re =     0.020 e 6     Ncrit =   5.000

  alpha     CL        CD       CDp       Cm    Top Xtr Bot Xtr   Cpmin    Chinge    XCp    
 ------- -------- --------- --------- -------- ------- ------- -------- --------- ---------
 -10.000  -0.1394   0.13235   0.11755  -0.0626  0.2500  0.2500  -1.2213   0.0000  -0.2430
  -9.500  -0.1432   0.12374   0.10893  -0.0707  0.2500  0.1477  -1.4451   0.0000  -0.2847
  -9.000  -0.1345   0.11697   0.10228  -0.0727  0.2500  0.1364  -1.5042   0.0000  -0.3318
  -8.500  -0.1422   0.11127   0.09677  -0.0764  0.2500  0.1263  -1.6464   0.0000  -0.3238
  -8.000  -0.1331   0.10499   0.09063  -0.0768  0.2500  0.1244  -1.6704   0.0000  -0.3638
  -7.500  -0.1323   0.09919   0.08503  -0.0776  0.2500  0.1241  -1.7231   0.0000  -0.3708
  -7.000  -0.1305   0.09290   0.07895  -0.0800  0.2500  0.1244  -1.7877   0.0000  -0.3952
  -6.500  -0.1269   0.08587   0.07210  -0.0840  0.2500  0.1247  -1.8644   0.0000  -0.4424
  -6.000  -0.1192   0.07777   0.06411  -0.0902  0.2500  0.1246  -1.9557   0.0000  -0.5361
  -5.500  -0.1020   0.06902   0.05525  -0.0980  0.2500  0.1245  -2.0418   0.0000  -0.7431
  -5.000  -0.0607   0.05906   0.04455  -0.1109  0.2500  0.1271  -2.1145   0.0000  -1.6261
  -4.500  -0.0169   0.05339   0.03868  -0.1149  0.2500  0.1402  -2.0060   0.0000  -6.7151
  -4.000   0.0550   0.04665   0.03085  -0.1251  0.2500  0.1583  -1.9275   0.0000   2.5695
  -3.500   0.1167   0.04282   0.02670  -0.1289  0.2500  0.1955  -1.8211   0.0000   1.3738
  -3.000   0.1803   0.03920   0.02314  -0.1314  0.2500  0.2500  -1.7343   0.0000   0.9897
  -2.500   0.2355   0.03755   0.02085  -0.1307  0.2500  0.2500  -1.5961   0.0000   0.8118
  -2.000   0.2905   0.03744   0.01984  -0.1313  0.2500  0.2500  -1.3641   0.0000   0.7062
  -1.500   0.3453   0.03759   0.01927  -0.1323  0.2500  0.2500  -1.1213   0.0000   0.6353
  -1.000   0.3989   0.03795   0.01901  -0.1332  0.2500  0.2500  -0.8887   0.0000   0.5845
  -0.500   0.4510   0.03848   0.01906  -0.1338  0.2500  0.2500  -0.7805   0.0000   0.5462
   0.000   0.5014   0.03918   0.01937  -0.1343  0.2500  0.2500  -0.8177   0.0000   0.5162
   0.500   0.5501   0.04005   0.01993  -0.1345  0.2500  0.2500  -0.8539   0.0000   0.4920
   1.000   0.5973   0.04110   0.02075  -0.1346  0.2500  0.2500  -0.8924   0.0000   0.4719
   1.500   0.6432   0.04231   0.02181  -0.1345  0.2500  0.2500  -0.9324   0.0000   0.4550
   2.000   0.6872   0.04370   0.02312  -0.1343  0.2500  0.2500  -0.9724   0.0000   0.4406
   2.500   0.7290   0.04529   0.02470  -0.1340  0.2500  0.2500  -1.0140   0.0000   0.4282
   3.000   0.7687   0.04709   0.02656  -0.1335  0.2500  0.2500  -1.0544   0.0000   0.4173
   3.500   0.8062   0.04911   0.02869  -0.1329  0.2500  0.2500  -1.0964   0.0000   0.4078
   4.000   0.8415   0.05136   0.03111  -0.1322  0.2500  0.2500  -1.1388   0.0000   0.3994
   4.500   0.8742   0.05392   0.03392  -0.1315  0.2500  0.2500  -1.1804   0.0000   0.3920
   5.000   0.9045   0.05678   0.03704  -0.1308  0.2500  0.2500  -1.2217   0.0000   0.3854
   5.500   0.9324   0.05996   0.04051  -0.1300  0.2500  0.2500  -1.2927   0.0000   0.3796
   6.000   0.9575   0.06351   0.04448  -0.1294  0.2500  0.2500  -1.3708   0.0000   0.3745
   6.500   0.9797   0.06749   0.04881  -0.1287  0.2500  0.2500  -1.4444   0.0000   0.3700
   7.000   0.9996   0.07183   0.05354  -0.1282  0.2500  0.2500  -1.5140   0.0000   0.3662
   7.500   1.0169   0.07656   0.05868  -0.1278  0.2500  0.2500  -1.5796   0.0000   0.3628
   8.000   1.0330   0.08157   0.06409  -0.1276  0.2500  0.2500  -1.6505   0.0000   0.3599
   8.500   1.0488   0.08672   0.06975  -0.1274  0.2500  0.2500  -1.7198   0.0000   0.3571
   9.000   1.0645   0.09194   0.07539  -0.1273  0.2500  0.2500  -1.7884   0.0000   0.3545
   9.500   1.0810   0.09716   0.08103  -0.1273  0.2500  0.2500  -1.8573   0.0000   0.3518
  10.000   1.0978   0.10248   0.08677  -0.1274  0.2500  0.2500  -1.9250   0.0000   0.3493
  10.500   1.1152   0.10782   0.09263  -0.1275  0.2500  0.2500  -1.9943   0.0000   0.3468
  11.000   1.1336   0.11308   0.09835  -0.1277  0.2500  0.2500  -2.0724   0.0000   0.3442
  11.500   1.1517   0.11869   0.10443  -0.1280  0.2500  0.2500  -2.1449   0.0000   0.3419
  12.000   1.1678   0.12522   0.11152  -0.1288  0.2500  0.2500  -2.2027   0.0000   0.3403
  12.500   1.1790   0.13367   0.12044  -0.1305  0.2500  0.2500  -2.2293   0.0000   0.3400
  13.000   1.1817   0.14513   0.13233  -0.1339  0.2500  0.2500  -2.2047   0.0000   0.3420
  13.500   1.1763   0.15937   0.14689  -0.1391  0.2500  0.2500  -2.1411   0.0000   0.3465
  14.000   1.1690   0.17418   0.16194  -0.1450  0.2500  0.2500  -2.0595   0.0000   0.3519
  14.500   1.1641   0.18809   0.17606  -0.1510  0.2500  0.2500  -1.9824   0.0000   0.3570
  15.000   1.1523   0.19952   0.18758  -0.1572  0.2400  0.2500  -1.8987   0.0000   0.3630
  15.500   1.1559   0.20929   0.19753  -0.1618  0.2335  0.2500  -1.8705   0.0000   0.3658
  16.000   1.1841   0.21583   0.20437  -0.1619  0.2239  0.2500  -1.9570   0.0000   0.3616
  16.500   1.1727   0.22561   0.21423  -0.1694  0.2151  0.2500  -1.8684   0.0000   0.3684
  17.000   1.1796   0.23444   0.22324  -0.1742  0.2104  0.2500  -1.8531   0.0000   0.3708
  17.500   1.1878   0.24364   0.23263  -0.1793  0.2094  0.2500  -1.8389   0.0000   0.3732
  18.000   1.2001   0.25210   0.24129  -0.1836  0.2059  0.2500  -1.8494   0.0000   0.3742
  18.500   1.2174   0.25981   0.24919  -0.1863  0.1971  0.2500  -1.9102   0.0000   0.3731
  19.000   1.2264   0.26867   0.25823  -0.1918  0.1966  0.2500  -1.9287   0.0000   0.3754
  19.500   1.2444   0.27965   0.26951  -0.1954  0.1994  0.2500  -2.0179   0.0000   0.3751
  20.000   1.2550   0.28828   0.27834  -0.2009  0.1992  0.2500  -2.0588   0.0000   0.3770


