xflr5 v6.42

 Calculated polar for: FX_63-137

 1 1 Reynolds number fixed          Mach number fixed         

 xtrf =   0.250 (top)        0.250 (bottom)
 Mach =   0.000     Re =     0.800 e 6     Ncrit =   5.000

  alpha     CL        CD       CDp       Cm    Top Xtr Bot Xtr   Cpmin    Chinge    XCp    
 ------- -------- --------- --------- -------- ------- ------- -------- --------- ---------
 -10.000  -0.3242   0.02250   0.01592  -0.1700  0.2500  0.0095  -7.7257   0.0000  -0.3008
  -9.500  -0.2639   0.02077   0.01396  -0.1740  0.2500  0.0100  -7.1298   0.0000  -0.4395
  -9.000  -0.2024   0.01922   0.01216  -0.1775  0.2500  0.0104  -6.5533   0.0000  -0.6636
  -8.500  -0.1399   0.01783   0.01054  -0.1807  0.2500  0.0109  -5.9932   0.0000  -1.0908
  -8.000  -0.0766   0.01664   0.00912  -0.1836  0.2500  0.0113  -5.4457   0.0000  -2.2298
  -7.500  -0.0129   0.01564   0.00793  -0.1863  0.2500  0.0117  -4.9099   0.0000  -14.6775
  -7.000   0.0510   0.01483   0.00695  -0.1888  0.2500  0.0121  -4.3877   0.0000   4.0567
  -6.500   0.1149   0.01417   0.00616  -0.1910  0.2500  0.0125  -3.8792   0.0000   1.9574
  -6.000   0.1814   0.01337   0.00523  -0.1940  0.2500  0.0140  -3.3978   0.0000   1.3452
  -5.500   0.2450   0.01294   0.00470  -0.1959  0.2500  0.0153  -2.9331   0.0000   1.0672
  -5.000   0.3079   0.01261   0.00427  -0.1976  0.2500  0.0167  -2.5390   0.0000   0.9044
  -4.500   0.3711   0.01229   0.00387  -0.1994  0.2500  0.0188  -2.1907   0.0000   0.7965
  -4.000   0.4330   0.01208   0.00361  -0.2007  0.2500  0.0222  -1.8506   0.0000   0.7205
  -3.500   0.4948   0.01191   0.00341  -0.2021  0.2500  0.0298  -1.5276   0.0000   0.6636
  -3.000   0.5576   0.01167   0.00326  -0.2038  0.2500  0.0604  -1.2144   0.0000   0.6192
  -2.500   0.6204   0.01145   0.00317  -0.2055  0.2500  0.1153  -0.9170   0.0000   0.5837
  -2.000   0.6862   0.01106   0.00311  -0.2081  0.2500  0.2500  -0.8837   0.0000   0.5548
  -1.500   0.7438   0.01117   0.00314  -0.2084  0.2500  0.2500  -0.9342   0.0000   0.5307
  -1.000   0.8010   0.01131   0.00321  -0.2085  0.2500  0.2500  -0.9850   0.0000   0.5100
  -0.500   0.8578   0.01145   0.00330  -0.2086  0.2500  0.2500  -1.0359   0.0000   0.4921
   0.000   0.9143   0.01160   0.00342  -0.2087  0.2500  0.2500  -1.0871   0.0000   0.4764
   0.500   0.9704   0.01177   0.00356  -0.2087  0.2500  0.2500  -1.1385   0.0000   0.4624
   1.000   1.0261   0.01194   0.00373  -0.2086  0.2500  0.2500  -1.1901   0.0000   0.4500
   1.500   1.0814   0.01213   0.00392  -0.2085  0.2500  0.2500  -1.2485   0.0000   0.4388
   2.000   1.1362   0.01233   0.00414  -0.2083  0.2500  0.2500  -1.3100   0.0000   0.4286
   2.500   1.1905   0.01254   0.00438  -0.2080  0.2500  0.2500  -1.3792   0.0000   0.4193
   3.000   1.2442   0.01277   0.00464  -0.2076  0.2500  0.2500  -1.4514   0.0000   0.4107
   3.500   1.2973   0.01301   0.00494  -0.2071  0.2500  0.2500  -1.5820   0.0000   0.4028
   4.000   1.3498   0.01326   0.00525  -0.2065  0.2500  0.2500  -1.7226   0.0000   0.3954
   4.500   1.4015   0.01353   0.00561  -0.2058  0.2500  0.2500  -1.8728   0.0000   0.3885
   5.000   1.4523   0.01381   0.00598  -0.2049  0.2500  0.2500  -2.0255   0.0000   0.3820
   5.500   1.5022   0.01412   0.00638  -0.2039  0.2500  0.2500  -2.1802   0.0000   0.3758
   6.000   1.5509   0.01445   0.00683  -0.2026  0.2500  0.2500  -2.3364   0.0000   0.3699
   6.500   1.5888   0.01533   0.00761  -0.1995  0.2213  0.2500  -2.4925   0.0000   0.3640
   7.000   1.6165   0.01632   0.00851  -0.1943  0.1921  0.2500  -2.6350   0.0000   0.3579
   7.500   1.6401   0.01773   0.00973  -0.1887  0.1554  0.2500  -2.7721   0.0000   0.3519
   8.000   1.6634   0.01926   0.01112  -0.1833  0.1231  0.2500  -2.9102   0.0000   0.3462
   8.500   1.6879   0.02074   0.01257  -0.1784  0.1042  0.2500  -3.0526   0.0000   0.3409
   9.000   1.7118   0.02233   0.01415  -0.1737  0.0909  0.2500  -3.1956   0.0000   0.3357
   9.500   1.7394   0.02380   0.01571  -0.1699  0.0849  0.2500  -3.3568   0.0000   0.3310
  10.000   1.7618   0.02568   0.01763  -0.1656  0.0788  0.2500  -3.5150   0.0000   0.3264
  10.500   1.7834   0.02778   0.01982  -0.1616  0.0721  0.2500  -3.6718   0.0000   0.3220
  11.000   1.8076   0.02981   0.02199  -0.1583  0.0700  0.2500  -3.8384   0.0000   0.3180
  11.500   1.8279   0.03224   0.02454  -0.1548  0.0671  0.2500  -3.9971   0.0000   0.3141
  12.000   1.8442   0.03510   0.02752  -0.1513  0.0642  0.2500  -4.1477   0.0000   0.3104
  12.500   1.8577   0.03837   0.03090  -0.1479  0.0609  0.2500  -4.3057   0.0000   0.3069
  13.000   1.8678   0.04213   0.03480  -0.1446  0.0575  0.2500  -4.5868   0.0000   0.3036
  13.500   1.8818   0.04561   0.03845  -0.1420  0.0561  0.2500  -4.8944   0.0000   0.3005
  14.000   1.8938   0.04940   0.04242  -0.1395  0.0544  0.2500  -5.2006   0.0000   0.2975
  14.500   1.9015   0.05383   0.04699  -0.1372  0.0520  0.2500  -5.4919   0.0000   0.2948
  15.000   1.9044   0.05893   0.05219  -0.1350  0.0489  0.2500  -5.7787   0.0000   0.2924
  15.500   1.9036   0.06462   0.05800  -0.1331  0.0454  0.2500  -6.0629   0.0000   0.2902
  16.000   1.9050   0.07014   0.06371  -0.1316  0.0436  0.2500  -6.3648   0.0000   0.2881
  16.500   1.9056   0.07595   0.06970  -0.1305  0.0421  0.2500  -6.6659   0.0000   0.2862
  17.000   1.9024   0.08234   0.07627  -0.1297  0.0399  0.2500  -6.9483   0.0000   0.2846
  17.500   1.8949   0.08943   0.08350  -0.1293  0.0375  0.2500  -7.2040   0.0000   0.2833
  18.000   1.8843   0.09700   0.09121  -0.1293  0.0349  0.2500  -7.4388   0.0000   0.2823
  18.500   1.8756   0.10437   0.09878  -0.1296  0.0334  0.2500  -7.6847   0.0000   0.2815
  19.000   1.8661   0.11201   0.10660  -0.1304  0.0315  0.2500  -7.9230   0.0000   0.2809
  19.500   1.8523   0.12040   0.11514  -0.1320  0.0286  0.2500  -8.1266   0.0000   0.2808
  20.000   1.8360   0.12929   0.12417  -0.1342  0.0257  0.2500  -8.3043   0.0000   0.2812


