xflr5 v6.42

 Calculated polar for: FX_60-126

 1 1 Reynolds number fixed          Mach number fixed         

 xtrf =   0.250 (top)        0.250 (bottom)
 Mach =   0.000     Re =     0.200 e 6     Ncrit =   5.000

  alpha     CL        CD       CDp       Cm    Top Xtr Bot Xtr   Cpmin    Chinge    XCp    
 ------- -------- --------- --------- -------- ------- ------- -------- --------- ---------
 -10.000  -0.3078   0.10661   0.10009  -0.0519  0.2500  0.0386  -1.9052   0.0000   0.0656
  -9.500  -0.3091   0.09637   0.08993  -0.0546  0.2500  0.0403  -1.9546   0.0000   0.0581
  -9.000  -0.3059   0.08407   0.07763  -0.0599  0.2500  0.0273  -2.2488   0.0000   0.0391
  -8.500  -0.3226   0.06741   0.06102  -0.0693  0.2500  0.0185  -2.8459   0.0000   0.0206
  -8.000  -0.3440   0.04895   0.04224  -0.0942  0.2500  0.0177  -3.3536   0.0000  -0.0370
  -7.500  -0.3149   0.03794   0.03008  -0.1075  0.2500  0.0141  -3.7147   0.0000  -0.1045
  -7.000  -0.2700   0.03171   0.02318  -0.1120  0.2500  0.0132  -3.6079   0.0000  -0.1791
  -6.500  -0.2171   0.02728   0.01808  -0.1146  0.2500  0.0124  -3.4454   0.0000  -0.2941
  -6.000  -0.1612   0.02408   0.01429  -0.1159  0.2500  0.0116  -3.2446   0.0000  -0.4886
  -5.500  -0.1046   0.02180   0.01163  -0.1165  0.2500  0.0111  -3.0033   0.0000  -0.8911
  -5.000  -0.0474   0.02009   0.00971  -0.1172  0.2500  0.0107  -2.7134   0.0000  -2.2736
  -4.500   0.0112   0.01871   0.00815  -0.1182  0.2500  0.0104  -2.3928   0.0000  11.0366
  -4.000   0.0714   0.01754   0.00681  -0.1196  0.2500  0.0103  -2.0608   0.0000   1.9522
  -3.500   0.1322   0.01664   0.00566  -0.1210  0.2500  0.0103  -1.7318   0.0000   1.1772
  -3.000   0.1925   0.01600   0.00476  -0.1220  0.2500  0.0105  -1.4130   0.0000   0.8902
  -2.500   0.2521   0.01558   0.00412  -0.1227  0.2500  0.0111  -1.1055   0.0000   0.7403
  -2.000   0.3112   0.01532   0.00368  -0.1232  0.2500  0.0126  -0.8162   0.0000   0.6479
  -1.500   0.3745   0.01414   0.00323  -0.1257  0.2500  0.2500  -0.6624   0.0000   0.5864
  -1.000   0.4318   0.01422   0.00313  -0.1258  0.2500  0.2500  -0.7069   0.0000   0.5410
  -0.500   0.4888   0.01432   0.00312  -0.1258  0.2500  0.2500  -0.7516   0.0000   0.5063
   0.000   0.5454   0.01444   0.00318  -0.1258  0.2500  0.2500  -0.7966   0.0000   0.4789
   0.500   0.6018   0.01459   0.00328  -0.1257  0.2500  0.2500  -0.8477   0.0000   0.4567
   1.000   0.6579   0.01475   0.00343  -0.1257  0.2500  0.2500  -0.9065   0.0000   0.4382
   1.500   0.7137   0.01493   0.00365  -0.1256  0.2500  0.2500  -0.9731   0.0000   0.4226
   2.000   0.7691   0.01514   0.00390  -0.1254  0.2500  0.2500  -1.0524   0.0000   0.4092
   2.500   0.8242   0.01536   0.00418  -0.1252  0.2500  0.2500  -1.1507   0.0000   0.3975
   3.000   0.8789   0.01561   0.00455  -0.1249  0.2500  0.2500  -1.2589   0.0000   0.3872
   3.500   0.9332   0.01588   0.00492  -0.1246  0.2500  0.2500  -1.3689   0.0000   0.3780
   4.000   0.9869   0.01617   0.00535  -0.1242  0.2500  0.2500  -1.4957   0.0000   0.3698
   4.500   1.0401   0.01650   0.00588  -0.1237  0.2500  0.2500  -1.6270   0.0000   0.3623
   5.000   1.0928   0.01685   0.00643  -0.1231  0.2500  0.2500  -1.8285   0.0000   0.3554
   5.500   1.1448   0.01724   0.00705  -0.1225  0.2500  0.2500  -2.0354   0.0000   0.3491
   6.000   1.1962   0.01766   0.00773  -0.1217  0.2500  0.2500  -2.2470   0.0000   0.3432
   6.500   1.2463   0.01817   0.00851  -0.1207  0.2475  0.2500  -2.4617   0.0000   0.3377
   7.000   1.2847   0.01953   0.00966  -0.1182  0.1946  0.2500  -2.6578   0.0000   0.3321
   7.500   1.3173   0.02128   0.01112  -0.1150  0.1386  0.2500  -2.8458   0.0000   0.3268
   8.000   1.3536   0.02261   0.01244  -0.1123  0.1170  0.2500  -3.0448   0.0000   0.3217
   9.000   1.4137   0.02547   0.01538  -0.1050  0.0816  0.2500  -3.4251   0.0000   0.3115
   9.500   1.4398   0.02705   0.01711  -0.1010  0.0678  0.2500  -3.6419   0.0000   0.3066
  10.000   1.4623   0.02903   0.01917  -0.0971  0.0554  0.2500  -4.0700   0.0000   0.3021
  10.500   1.4813   0.03139   0.02163  -0.0933  0.0458  0.2500  -4.4892   0.0000   0.2978
  11.000   1.5007   0.03388   0.02432  -0.0901  0.0385  0.2500  -4.9210   0.0000   0.2940
  11.500   1.5149   0.03697   0.02762  -0.0870  0.0333  0.2500  -5.3280   0.0000   0.2905
  12.000   1.5291   0.04027   0.03116  -0.0843  0.0312  0.2500  -5.7406   0.0000   0.2873
  12.500   1.5400   0.04403   0.03518  -0.0820  0.0295  0.2500  -6.1338   0.0000   0.2844
  13.000   1.5444   0.04866   0.04002  -0.0800  0.0263  0.2500  -6.4833   0.0000   0.2820
  13.500   1.5460   0.05383   0.04541  -0.0785  0.0223  0.2500  -6.8083   0.0000   0.2800
  14.000   1.5419   0.05988   0.05167  -0.0775  0.0107  0.2500  -7.0883   0.0000   0.2784
  14.500   1.5219   0.06844   0.06038  -0.0775  0.0048  0.2500  -7.2350   0.0000   0.2780
  15.000   1.5058   0.07709   0.06931  -0.0784  0.0040  0.2500  -7.3892   0.0000   0.2781
  15.500   1.4905   0.08623   0.07880  -0.0802  0.0036  0.2500  -7.5314   0.0000   0.2787
  16.000   1.4717   0.09636   0.08928  -0.0829  0.0034  0.2500  -7.6372   0.0000   0.2802
  16.500   1.4495   0.10746   0.10073  -0.0866  0.0033  0.2500  -7.6958   0.0000   0.2826
  17.000   1.4247   0.11957   0.11319  -0.0914  0.0032  0.2500  -7.7060   0.0000   0.2859
  17.500   1.3975   0.13277   0.12674  -0.0974  0.0031  0.2500  -7.6613   0.0000   0.2905
  18.000   1.3675   0.14723   0.14154  -0.1047  0.0031  0.2500  -7.5460   0.0000   0.2965
  18.500   1.3347   0.16310   0.15774  -0.1134  0.0032  0.2500  -7.3419   0.0000   0.3041
  19.000   1.3002   0.18072   0.17566  -0.1237  0.0032  0.2500  -7.0340   0.0000   0.3136
  19.500   1.2705   0.19847   0.19367  -0.1343  0.0033  0.2500  -6.6905   0.0000   0.3237
  20.000   1.2494   0.21506   0.21049  -0.1443  0.0034  0.2500  -6.3753   0.0000   0.3330


