xflr5 v6.42

 Calculated polar for: FX_60-126

 1 1 Reynolds number fixed          Mach number fixed         

 xtrf =   0.250 (top)        0.250 (bottom)
 Mach =   0.000     Re =     0.025 e 6     Ncrit =   5.000

  alpha     CL        CD       CDp       Cm    Top Xtr Bot Xtr   Cpmin    Chinge    XCp    
 ------- -------- --------- --------- -------- ------- ------- -------- --------- ---------
 -10.000  -0.3285   0.11995   0.10709  -0.0436  0.2500  0.0674  -1.8479   0.0000   0.1029
  -9.500  -0.3195   0.11222   0.09945  -0.0466  0.2500  0.0664  -1.9100   0.0000   0.0901
  -9.000  -0.3127   0.10427   0.09162  -0.0499  0.2500  0.0654  -1.9906   0.0000   0.0765
  -8.500  -0.3087   0.09592   0.08343  -0.0539  0.2500  0.0643  -2.0951   0.0000   0.0621
  -8.000  -0.3086   0.08698   0.07467  -0.0586  0.2500  0.0632  -2.2297   0.0000   0.0472
  -7.500  -0.3115   0.07627   0.06408  -0.0670  0.2500  0.0615  -2.4273   0.0000   0.0227
  -7.000  -0.3089   0.06473   0.05227  -0.0781  0.2500  0.0602  -2.6382   0.0000  -0.0146
  -6.500  -0.2876   0.05530   0.04212  -0.0859  0.2500  0.0606  -2.7409   0.0000  -0.0603
  -6.000  -0.2495   0.04825   0.03408  -0.0899  0.2500  0.0628  -2.7402   0.0000  -0.1228
  -5.500  -0.2039   0.04315   0.02809  -0.0910  0.2500  0.0671  -2.6820   0.0000  -0.2105
  -5.000  -0.1586   0.03916   0.02377  -0.0913  0.2500  0.0757  -2.5798   0.0000  -0.3418
  -4.500  -0.1070   0.03528   0.01983  -0.0935  0.2500  0.1107  -2.4826   0.0000  -0.6448
  -4.000  -0.0511   0.03215   0.01731  -0.0952  0.2500  0.2500  -2.4310   0.0000  -1.6534
  -3.500   0.0066   0.03144   0.01536  -0.0956  0.2500  0.2500  -2.1877   0.0000  14.8837
  -3.000   0.0637   0.03095   0.01393  -0.0962  0.2500  0.2500  -1.8794   0.0000   1.7818
  -2.500   0.1200   0.03063   0.01280  -0.0967  0.2500  0.2500  -1.5465   0.0000   1.0648
  -2.000   0.1761   0.03044   0.01197  -0.0973  0.2500  0.2500  -1.2079   0.0000   0.8067
  -1.500   0.2315   0.03038   0.01137  -0.0977  0.2500  0.2500  -0.8761   0.0000   0.6737
  -1.000   0.2863   0.03043   0.01096  -0.0979  0.2500  0.2500  -0.6151   0.0000   0.5925
  -0.500   0.3403   0.03059   0.01077  -0.0981  0.2500  0.2500  -0.6552   0.0000   0.5375
   0.000   0.3935   0.03085   0.01075  -0.0981  0.2500  0.2500  -0.6952   0.0000   0.4977
   0.500   0.4460   0.03119   0.01092  -0.0980  0.2500  0.2500  -0.7411   0.0000   0.4675
   1.000   0.4974   0.03162   0.01123  -0.0977  0.2500  0.2500  -0.7905   0.0000   0.4436
   1.500   0.5480   0.03214   0.01172  -0.0974  0.2500  0.2500  -0.8411   0.0000   0.4243
   2.000   0.5975   0.03276   0.01238  -0.0969  0.2500  0.2500  -0.9003   0.0000   0.4082
   2.500   0.6459   0.03347   0.01322  -0.0963  0.2500  0.2500  -0.9678   0.0000   0.3946
   3.000   0.6931   0.03428   0.01418  -0.0956  0.2500  0.2500  -1.0419   0.0000   0.3828
   3.500   0.7389   0.03521   0.01531  -0.0947  0.2500  0.2500  -1.1345   0.0000   0.3726
   4.000   0.7832   0.03626   0.01669  -0.0937  0.2500  0.2500  -1.2270   0.0000   0.3635
   4.500   0.8259   0.03744   0.01819  -0.0926  0.2500  0.2500  -1.3190   0.0000   0.3554
   5.000   0.8669   0.03878   0.01989  -0.0914  0.2500  0.2500  -1.4203   0.0000   0.3482
   5.500   0.9053   0.04031   0.02195  -0.0900  0.2500  0.2500  -1.5225   0.0000   0.3415
   6.000   0.9408   0.04204   0.02416  -0.0883  0.2500  0.2500  -1.6224   0.0000   0.3354
   6.500   0.9744   0.04403   0.02672  -0.0867  0.2500  0.2500  -1.7610   0.0000   0.3299
   7.000   1.0069   0.04631   0.02957  -0.0853  0.2500  0.2500  -1.9134   0.0000   0.3250
   7.500   1.0371   0.04891   0.03277  -0.0839  0.2500  0.2500  -2.0629   0.0000   0.3205
   8.000   1.0651   0.05183   0.03638  -0.0826  0.2500  0.2500  -2.2083   0.0000   0.3164
   8.500   1.0911   0.05507   0.04028  -0.0812  0.2500  0.2500  -2.3491   0.0000   0.3127
   9.000   1.1161   0.05860   0.04449  -0.0799  0.2500  0.2500  -2.4860   0.0000   0.3091
   9.500   1.1403   0.06250   0.04907  -0.0786  0.2500  0.2500  -2.6174   0.0000   0.3057
  10.000   1.1637   0.06703   0.05434  -0.0773  0.2500  0.2500  -2.7383   0.0000   0.3025
  10.500   1.1828   0.07332   0.06132  -0.0764  0.2500  0.2500  -2.8265   0.0000   0.3001
  11.000   1.1633   0.08691   0.07552  -0.0787  0.2500  0.2500  -2.7584   0.0000   0.3027
  11.500   1.0845   0.11284   0.10154  -0.0888  0.2500  0.2500  -2.4392   0.0000   0.3169
  12.000   1.0968   0.11882   0.10779  -0.0880  0.2337  0.2500  -2.5024   0.0000   0.3144
  12.500   1.0441   0.13844   0.12734  -0.0968  0.2222  0.2500  -2.2694   0.0000   0.3266
  13.000   1.0505   0.14588   0.13497  -0.0976  0.2070  0.2500  -2.2885   0.0000   0.3262
  13.500   1.0415   0.15650   0.14572  -0.1014  0.1932  0.2500  -2.2297   0.0000   0.3300
  14.000   1.0432   0.16673   0.15608  -0.1045  0.1862  0.2500  -2.2074   0.0000   0.3322
  14.500   1.0255   0.18017   0.16955  -0.1117  0.1789  0.2500  -2.0722   0.0000   0.3405
  15.000   1.0486   0.18473   0.17436  -0.1108  0.1634  0.2500  -2.3117   0.0000   0.3364
  15.500   1.0370   0.19767   0.18733  -0.1183  0.1594  0.2500  -2.2185   0.0000   0.3443
  16.000   1.0363   0.20803   0.19777  -0.1240  0.1542  0.2500  -2.2259   0.0000   0.3492
  16.500   1.0636   0.21320   0.20325  -0.1230  0.1420  0.2500  -2.5645   0.0000   0.3442
  17.000   1.0584   0.22416   0.21423  -0.1306  0.1388  0.2500  -2.4960   0.0000   0.3513
  17.500   1.0651   0.23389   0.22407  -0.1359  0.1388  0.2500  -2.5435   0.0000   0.3548
  18.000   1.0762   0.24353   0.23387  -0.1404  0.1400  0.2500  -2.6295   0.0000   0.3568
  19.000   1.0887   0.26359   0.25417  -0.1538  0.1581  0.2500  -2.6103   0.0000   0.3662
  19.500   1.1122   0.28700   0.27793  -0.1593  0.2114  0.2500  -2.6484   0.0000   0.3677
  20.000   1.1146   0.28872   0.27969  -0.1662  0.2093  0.2500  -2.6428   0.0000   0.3725


