xflr5 v6.42

 Calculated polar for: FX_60-126

 1 1 Reynolds number fixed          Mach number fixed         

 xtrf =   0.250 (top)        0.250 (bottom)
 Mach =   0.000     Re =     0.075 e 6     Ncrit =   5.000

  alpha     CL        CD       CDp       Cm    Top Xtr Bot Xtr   Cpmin    Chinge    XCp    
 ------- -------- --------- --------- -------- ------- ------- -------- --------- ---------
 -10.000  -0.3190   0.10600   0.09709  -0.0478  0.2500  0.0270  -2.0866   0.0000   0.0845
  -9.500  -0.3118   0.09812   0.08928  -0.0511  0.2500  0.0259  -2.1588   0.0000   0.0707
  -9.000  -0.3099   0.08878   0.08002  -0.0559  0.2500  0.0246  -2.3254   0.0000   0.0547
  -8.500  -0.3205   0.07506   0.06640  -0.0646  0.2500  0.0229  -2.7289   0.0000   0.0342
  -8.000  -0.3552   0.05546   0.04640  -0.0885  0.2500  0.0213  -3.4387   0.0000  -0.0117
  -7.500  -0.3325   0.04714   0.03726  -0.0982  0.2500  0.0206  -3.5064   0.0000  -0.0580
  -7.000  -0.2947   0.04045   0.02988  -0.1030  0.2500  0.0202  -3.4341   0.0000  -0.1127
  -6.500  -0.2473   0.03533   0.02407  -0.1057  0.2500  0.0199  -3.2960   0.0000  -0.1916
  -6.000  -0.1962   0.03156   0.01971  -0.1067  0.2500  0.0197  -3.1071   0.0000  -0.3101
  -5.500  -0.1438   0.02879   0.01658  -0.1069  0.2500  0.0197  -2.8816   0.0000  -0.5133
  -5.000  -0.0895   0.02665   0.01413  -0.1073  0.2500  0.0199  -2.6315   0.0000  -0.9774
  -4.500  -0.0314   0.02485   0.01193  -0.1088  0.2500  0.0203  -2.3633   0.0000  -3.2861
  -4.000   0.0294   0.02329   0.00989  -0.1107  0.2500  0.0213  -2.0881   0.0000   4.0859
  -3.500   0.0905   0.02209   0.00832  -0.1123  0.2500  0.0241  -1.8093   0.0000   1.5092
  -3.000   0.1549   0.01985   0.00691  -0.1160  0.2500  0.2157  -1.5419   0.0000   1.0074
  -2.500   0.2133   0.01967   0.00637  -0.1163  0.2500  0.2500  -1.2866   0.0000   0.7996
  -2.000   0.2709   0.01967   0.00596  -0.1163  0.2500  0.2500  -0.9987   0.0000   0.6819
  -1.500   0.3280   0.01971   0.00566  -0.1164  0.2500  0.2500  -0.6917   0.0000   0.6059
  -1.000   0.3846   0.01979   0.00550  -0.1165  0.2500  0.2500  -0.6753   0.0000   0.5527
  -0.500   0.4409   0.01992   0.00544  -0.1165  0.2500  0.2500  -0.7190   0.0000   0.5132
   0.000   0.4968   0.02009   0.00548  -0.1164  0.2500  0.2500  -0.7629   0.0000   0.4827
   0.500   0.5521   0.02029   0.00558  -0.1163  0.2500  0.2500  -0.8141   0.0000   0.4584
   1.000   0.6071   0.02053   0.00579  -0.1161  0.2500  0.2500  -0.8685   0.0000   0.4384
   1.500   0.6615   0.02080   0.00607  -0.1159  0.2500  0.2500  -0.9317   0.0000   0.4218
   2.000   0.7155   0.02111   0.00645  -0.1156  0.2500  0.2500  -1.0035   0.0000   0.4076
   2.500   0.7689   0.02146   0.00688  -0.1152  0.2500  0.2500  -1.0890   0.0000   0.3953
   3.000   0.8218   0.02185   0.00738  -0.1147  0.2500  0.2500  -1.1931   0.0000   0.3846
   3.500   0.8741   0.02228   0.00800  -0.1141  0.2500  0.2500  -1.2987   0.0000   0.3750
   4.000   0.9256   0.02275   0.00866  -0.1135  0.2500  0.2500  -1.4111   0.0000   0.3665
   4.500   0.9765   0.02327   0.00947  -0.1127  0.2500  0.2500  -1.5341   0.0000   0.3587
   5.000   1.0264   0.02385   0.01032  -0.1118  0.2500  0.2500  -1.6605   0.0000   0.3517
   5.500   1.0754   0.02448   0.01130  -0.1108  0.2500  0.2500  -1.8534   0.0000   0.3451
   6.000   1.1233   0.02518   0.01235  -0.1096  0.2500  0.2500  -2.0499   0.0000   0.3391
   6.500   1.1701   0.02595   0.01352  -0.1082  0.2500  0.2500  -2.2493   0.0000   0.3334
   7.000   1.2155   0.02682   0.01485  -0.1067  0.2500  0.2500  -2.4504   0.0000   0.3280
   7.500   1.2594   0.02779   0.01630  -0.1049  0.2500  0.2500  -2.6519   0.0000   0.3228
   8.000   1.3016   0.02891   0.01797  -0.1029  0.2500  0.2500  -2.8519   0.0000   0.3179
   8.500   1.3427   0.03027   0.01987  -0.1006  0.2500  0.2500  -3.0477   0.0000   0.3130
   9.000   1.3593   0.03254   0.02211  -0.0955  0.2152  0.2500  -3.1963   0.0000   0.3076
   9.500   1.3711   0.03520   0.02477  -0.0905  0.1851  0.2500  -3.3333   0.0000   0.3026
  10.000   1.3817   0.03830   0.02796  -0.0861  0.1626  0.2500  -3.4898   0.0000   0.2981
  10.500   1.3933   0.04161   0.03150  -0.0825  0.1448  0.2500  -3.8361   0.0000   0.2942
  11.000   1.4042   0.04524   0.03540  -0.0794  0.1305  0.2500  -4.1837   0.0000   0.2907
  11.500   1.4061   0.04980   0.04005  -0.0767  0.1168  0.2500  -4.4862   0.0000   0.2877
  12.000   1.4090   0.05461   0.04520  -0.0748  0.1037  0.2500  -4.7952   0.0000   0.2854
  12.500   1.4083   0.06008   0.05098  -0.0734  0.0936  0.2500  -5.0800   0.0000   0.2834
  13.000   1.4032   0.06639   0.05758  -0.0728  0.0843  0.2500  -5.3342   0.0000   0.2823
  13.500   1.3937   0.07353   0.06490  -0.0728  0.0775  0.2500  -5.5516   0.0000   0.2817
  14.000   1.3883   0.08064   0.07248  -0.0733  0.0709  0.2500  -5.7856   0.0000   0.2813
  14.500   1.3782   0.08881   0.08099  -0.0747  0.0665  0.2500  -5.9758   0.0000   0.2817
  15.000   1.3652   0.09770   0.09013  -0.0769  0.0632  0.2500  -6.1350   0.0000   0.2828
  15.500   1.3539   0.10665   0.09941  -0.0793  0.0606  0.2500  -6.2865   0.0000   0.2840
  16.000   1.3383   0.11703   0.11026  -0.0829  0.0582  0.2500  -6.3690   0.0000   0.2865
  16.500   1.3142   0.12969   0.12336  -0.0885  0.0564  0.2500  -6.3363   0.0000   0.2910
  17.000   1.2721   0.14746   0.14156  -0.0979  0.0551  0.2500  -6.0414   0.0000   0.2999
  17.500   1.1464   0.19443   0.18855  -0.1245  0.0572  0.2500  -4.2680   0.0000   0.3329
  18.000   1.1300   0.21229   0.20634  -0.1345  0.0548  0.2500  -3.9429   0.0000   0.3431
  18.500   1.1462   0.21630   0.21055  -0.1372  0.0487  0.2500  -4.2873   0.0000   0.3426
  19.000   1.1647   0.21932   0.21376  -0.1391  0.0463  0.2500  -4.6805   0.0000   0.3409
  19.500   1.1566   0.23598   0.23040  -0.1485  0.0447  0.2500  -4.3593   0.0000   0.3496
  20.000   1.1563   0.24970   0.24416  -0.1572  0.0403  0.2500  -4.1503   0.0000   0.3566


