xflr5 v6.42

 Calculated polar for: FX_60-126

 1 1 Reynolds number fixed          Mach number fixed         

 xtrf =   0.250 (top)        0.250 (bottom)
 Mach =   0.000     Re =     0.020 e 6     Ncrit =   5.000

  alpha     CL        CD       CDp       Cm    Top Xtr Bot Xtr   Cpmin    Chinge    XCp    
 ------- -------- --------- --------- -------- ------- ------- -------- --------- ---------
 -10.000  -0.3267   0.12379   0.10992  -0.0413  0.2500  0.0838  -1.7818   0.0000   0.1093
  -9.500  -0.3181   0.11610   0.10235  -0.0443  0.2500  0.0820  -1.8511   0.0000   0.0967
  -9.000  -0.3116   0.10824   0.09462  -0.0477  0.2500  0.0805  -1.9360   0.0000   0.0833
  -8.500  -0.3078   0.10008   0.08664  -0.0515  0.2500  0.0791  -2.0401   0.0000   0.0695
  -7.500  -0.3092   0.08122   0.06816  -0.0636  0.2500  0.0766  -2.3506   0.0000   0.0323
  -7.000  -0.3083   0.06976   0.05659  -0.0740  0.2500  0.0754  -2.5634   0.0000  -0.0014
  -6.500  -0.2913   0.06028   0.04648  -0.0814  0.2500  0.0766  -2.6737   0.0000  -0.0409
  -6.000  -0.2579   0.05269   0.03809  -0.0864  0.2500  0.0821  -2.6931   0.0000  -0.0970
  -5.500  -0.2164   0.04679   0.03145  -0.0891  0.2500  0.0930  -2.6568   0.0000  -0.1748
  -5.000  -0.1713   0.04229   0.02676  -0.0908  0.2500  0.1214  -2.5673   0.0000  -0.2950
  -4.500  -0.1249   0.03807   0.02374  -0.0918  0.2500  0.2347  -2.5482   0.0000  -0.5032
  -4.000  -0.0714   0.03561   0.01992  -0.0895  0.2500  0.2500  -2.5080   0.0000  -1.0312
  -3.500  -0.0156   0.03469   0.01778  -0.0900  0.2500  0.2500  -2.2382   0.0000  -5.6325
  -3.000   0.0403   0.03404   0.01614  -0.0908  0.2500  0.2500  -1.9199   0.0000   2.5350
  -2.500   0.0963   0.03360   0.01487  -0.0916  0.2500  0.2500  -1.5833   0.0000   1.2127
  -2.000   0.1518   0.03333   0.01385  -0.0923  0.2500  0.2500  -1.2451   0.0000   0.8632
  -1.500   0.2068   0.03322   0.01314  -0.0929  0.2500  0.2500  -0.9158   0.0000   0.7015
  -1.000   0.2612   0.03324   0.01265  -0.0933  0.2500  0.2500  -0.6019   0.0000   0.6079
  -0.500   0.3147   0.03340   0.01242  -0.0936  0.2500  0.2500  -0.6391   0.0000   0.5468
   0.000   0.3674   0.03367   0.01237  -0.0937  0.2500  0.2500  -0.6780   0.0000   0.5036
   0.500   0.4190   0.03405   0.01255  -0.0937  0.2500  0.2500  -0.7225   0.0000   0.4714
   1.000   0.4696   0.03455   0.01289  -0.0935  0.2500  0.2500  -0.7699   0.0000   0.4463
   1.500   0.5190   0.03515   0.01345  -0.0932  0.2500  0.2500  -0.8179   0.0000   0.4261
   2.000   0.5673   0.03586   0.01419  -0.0928  0.2500  0.2500  -0.8746   0.0000   0.4095
   2.500   0.6142   0.03668   0.01516  -0.0922  0.2500  0.2500  -0.9367   0.0000   0.3955
   3.000   0.6595   0.03764   0.01627  -0.0915  0.2500  0.2500  -1.0066   0.0000   0.3836
   3.500   0.7034   0.03874   0.01759  -0.0906  0.2500  0.2500  -1.0899   0.0000   0.3732
   4.000   0.7455   0.04000   0.01913  -0.0897  0.2500  0.2500  -1.1779   0.0000   0.3641
   4.500   0.7849   0.04144   0.02097  -0.0885  0.2500  0.2500  -1.2639   0.0000   0.3560
   5.000   0.8220   0.04308   0.02298  -0.0872  0.2500  0.2500  -1.3513   0.0000   0.3488
   5.500   0.8568   0.04498   0.02530  -0.0859  0.2500  0.2500  -1.4456   0.0000   0.3423
   6.000   0.8902   0.04721   0.02815  -0.0847  0.2500  0.2500  -1.5379   0.0000   0.3367
   6.500   0.9216   0.04978   0.03126  -0.0838  0.2500  0.2500  -1.6344   0.0000   0.3318
   7.000   0.9504   0.05272   0.03483  -0.0829  0.2500  0.2500  -1.7661   0.0000   0.3274
   7.500   0.9768   0.05602   0.03874  -0.0820  0.2500  0.2500  -1.8992   0.0000   0.3236
   8.000   1.0011   0.05970   0.04305  -0.0813  0.2500  0.2500  -2.0279   0.0000   0.3201
   8.500   1.0238   0.06372   0.04779  -0.0806  0.2500  0.2500  -2.1521   0.0000   0.3170
   9.000   1.0454   0.06811   0.05283  -0.0800  0.2500  0.2500  -2.2715   0.0000   0.3141
   9.500   1.0652   0.07304   0.05841  -0.0795  0.2500  0.2500  -2.3822   0.0000   0.3115
  10.000   1.0825   0.07879   0.06479  -0.0791  0.2500  0.2500  -2.4775   0.0000   0.3094
  10.500   1.0919   0.08673   0.07340  -0.0797  0.2500  0.2500  -2.5311   0.0000   0.3087
  11.000   1.0783   0.10015   0.08724  -0.0831  0.2500  0.2500  -2.4761   0.0000   0.3124
  11.500   1.0491   0.11766   0.10496  -0.0893  0.2500  0.2500  -2.3355   0.0000   0.3202
  12.000   1.0253   0.13388   0.12126  -0.0954  0.2500  0.2500  -2.2041   0.0000   0.3278
  12.500   1.0087   0.14844   0.13596  -0.1011  0.2500  0.2500  -2.0921   0.0000   0.3347
  13.000   1.0028   0.15992   0.14768  -0.1052  0.2439  0.2500  -2.0267   0.0000   0.3389
  13.500   1.0083   0.16849   0.15643  -0.1073  0.2308  0.2500  -2.0149   0.0000   0.3397
  14.000   1.0179   0.17581   0.16399  -0.1087  0.2141  0.2500  -2.0408   0.0000   0.3393
  14.500   1.0184   0.18647   0.17477  -0.1129  0.2089  0.2500  -1.9958   0.0000   0.3428
  15.000   1.0121   0.19725   0.18563  -0.1186  0.2045  0.2500  -1.9104   0.0000   0.3486
  15.500   1.0352   0.20359   0.19222  -0.1186  0.1878  0.2500  -2.1154   0.0000   0.3451
  16.000   1.0280   0.21352   0.20220  -0.1251  0.1835  0.2500  -2.0746   0.0000   0.3516
  16.500   1.0327   0.22307   0.21187  -0.1302  0.1827  0.2500  -2.1185   0.0000   0.3552
  17.000   1.0387   0.23165   0.22064  -0.1351  0.1792  0.2500  -2.1752   0.0000   0.3585
  17.500   1.0529   0.23923   0.22841  -0.1382  0.1699  0.2500  -2.3240   0.0000   0.3588
  18.000   1.0679   0.24815   0.23753  -0.1416  0.1673  0.2500  -2.4607   0.0000   0.3593
  18.500   1.0701   0.25718   0.24662  -0.1491  0.1762  0.2500  -2.4246   0.0000   0.3653
  19.500   1.0883   0.28060   0.27041  -0.1645  0.2500  0.2500  -2.3862   0.0000   0.3757
  20.000   1.1026   0.28842   0.27842  -0.1691  0.2500  0.2500  -2.4786   0.0000   0.3768


