xflr5 v6.42

 Calculated polar for: FX_60-126

 1 1 Reynolds number fixed          Mach number fixed         

 xtrf =   0.250 (top)        0.250 (bottom)
 Mach =   0.000     Re =     0.800 e 6     Ncrit =   5.000

  alpha     CL        CD       CDp       Cm    Top Xtr Bot Xtr   Cpmin    Chinge    XCp    
 ------- -------- --------- --------- -------- ------- ------- -------- --------- ---------
 -10.000  -0.3220   0.09588   0.09122  -0.0498  0.2500  0.0089  -2.5204   0.0000   0.0792
  -9.500  -0.3225   0.08571   0.08109  -0.0551  0.2500  0.0089  -2.7226   0.0000   0.0634
  -9.000  -0.3345   0.07144   0.06689  -0.0634  0.2500  0.0088  -3.2049   0.0000   0.0454
  -8.500  -0.3786   0.04736   0.04260  -0.0880  0.2500  0.0083  -4.1032   0.0000   0.0042
  -8.000  -0.3513   0.03556   0.03019  -0.1089  0.2500  0.0086  -4.2305   0.0000  -0.0732
  -7.500  -0.3060   0.02985   0.02389  -0.1147  0.2500  0.0091  -4.0875   0.0000  -0.1385
  -7.000  -0.2500   0.02818   0.02162  -0.1175  0.2500  0.0099  -3.7181   0.0000  -0.2353
  -6.500  -0.1988   0.02190   0.01497  -0.1209  0.2500  0.0113  -3.4820   0.0000  -0.3759
  -6.000  -0.1416   0.02001   0.01283  -0.1223  0.2500  0.0130  -3.0468   0.0000  -0.6356
  -5.500  -0.0836   0.01769   0.01024  -0.1239  0.2500  0.0168  -2.6493   0.0000  -1.2657
  -5.000  -0.0250   0.01639   0.00879  -0.1248  0.2500  0.0196  -2.2648   0.0000  -4.8419
  -4.500   0.0356   0.01515   0.00722  -0.1248  0.2500  0.0149  -2.0848   0.0000   3.8155
  -4.000   0.0973   0.01330   0.00524  -0.1258  0.2500  0.0088  -1.9848   0.0000   1.5621
  -3.500   0.1588   0.01251   0.00431  -0.1269  0.2500  0.0070  -1.7354   0.0000   1.0587
  -3.000   0.2196   0.01196   0.00366  -0.1279  0.2500  0.0063  -1.3845   0.0000   0.8380
  -2.500   0.2809   0.01139   0.00298  -0.1290  0.2500  0.0060  -1.0767   0.0000   0.7125
  -2.000   0.3409   0.01110   0.00257  -0.1297  0.2500  0.0058  -0.7635   0.0000   0.6322
  -1.500   0.4002   0.01093   0.00231  -0.1302  0.2500  0.0057  -0.6771   0.0000   0.5760
  -1.000   0.4590   0.01085   0.00216  -0.1306  0.2500  0.0058  -0.7223   0.0000   0.5344
  -0.500   0.5173   0.01081   0.00210  -0.1310  0.2500  0.0065  -0.7676   0.0000   0.5021
   0.000   0.5761   0.01070   0.00207  -0.1315  0.2500  0.0617  -0.8135   0.0000   0.4766
   0.500   0.6373   0.01019   0.00206  -0.1330  0.2500  0.2500  -0.8700   0.0000   0.4565
   1.000   0.6946   0.01029   0.00217  -0.1332  0.2500  0.2500  -0.9350   0.0000   0.4389
   1.500   0.7516   0.01041   0.00230  -0.1333  0.2500  0.2500  -1.0036   0.0000   0.4239
   2.000   0.8085   0.01053   0.00245  -0.1333  0.2500  0.2500  -1.0880   0.0000   0.4110
   2.500   0.8651   0.01067   0.00262  -0.1334  0.2500  0.2500  -1.1955   0.0000   0.3997
   3.000   0.9215   0.01081   0.00283  -0.1334  0.2500  0.2500  -1.3068   0.0000   0.3898
   3.500   0.9776   0.01097   0.00305  -0.1333  0.2500  0.2500  -1.4242   0.0000   0.3809
   4.000   1.0281   0.01171   0.00356  -0.1325  0.1973  0.2500  -1.5572   0.0000   0.3728
   4.500   1.0738   0.01291   0.00432  -0.1310  0.1201  0.2500  -1.7259   0.0000   0.3654
   5.000   1.1215   0.01384   0.00502  -0.1298  0.0754  0.2500  -1.9232   0.0000   0.3585
   5.500   1.1689   0.01473   0.00574  -0.1285  0.0454  0.2500  -2.1264   0.0000   0.3520
   6.000   1.2170   0.01549   0.00644  -0.1272  0.0302  0.2500  -2.3383   0.0000   0.3461
   6.500   1.2658   0.01611   0.00707  -0.1261  0.0246  0.2500  -2.5578   0.0000   0.3405
   7.000   1.3136   0.01675   0.00776  -0.1249  0.0192  0.2500  -2.7976   0.0000   0.3352
   7.500   1.3537   0.01802   0.00901  -0.1224  0.0031  0.2500  -3.0146   0.0000   0.3299
   8.000   1.3984   0.01875   0.00981  -0.1207  0.0025  0.2500  -3.2497   0.0000   0.3251
   8.500   1.4408   0.01956   0.01070  -0.1187  0.0023  0.2500  -3.4794   0.0000   0.3203
   9.000   1.4801   0.02048   0.01173  -0.1161  0.0022  0.2500  -3.7094   0.0000   0.3157
  10.000   1.5402   0.02270   0.01420  -0.1081  0.0021  0.2500  -4.5232   0.0000   0.3058
  10.500   1.5665   0.02415   0.01580  -0.1040  0.0020  0.2500  -5.0214   0.0000   0.3012
  11.000   1.5899   0.02589   0.01773  -0.0999  0.0019  0.2500  -5.5132   0.0000   0.2968
  11.500   1.6091   0.02808   0.02011  -0.0960  0.0017  0.2500  -5.9899   0.0000   0.2927
  12.000   1.6238   0.03087   0.02311  -0.0923  0.0015  0.2500  -6.4501   0.0000   0.2890
  12.500   1.6319   0.03448   0.02696  -0.0887  0.0013  0.2500  -6.8669   0.0000   0.2856
  13.000   1.6291   0.03941   0.03219  -0.0853  0.0010  0.2500  -7.1517   0.0000   0.2826
  13.500   1.6397   0.04330   0.03624  -0.0833  0.0010  0.2500  -7.6587   0.0000   0.2800
  14.000   1.6463   0.04782   0.04096  -0.0817  0.0009  0.2500  -8.1405   0.0000   0.2778
  14.500   1.6464   0.05327   0.04662  -0.0805  0.0008  0.2500  -8.5563   0.0000   0.2760
  15.000   1.6418   0.05968   0.05325  -0.0800  0.0007  0.2500  -8.9166   0.0000   0.2747
  15.500   1.6321   0.06723   0.06103  -0.0803  0.0006  0.2500  -9.2121   0.0000   0.2740
  16.000   1.6159   0.07608   0.07014  -0.0814  0.0005  0.2500  -9.4290   0.0000   0.2741
  16.500   1.5947   0.08615   0.08047  -0.0835  0.0005  0.2500  -9.5853   0.0000   0.2749
  17.000   1.5693   0.09738   0.09196  -0.0867  0.0005  0.2500  -9.6814   0.0000   0.2766
  17.500   1.5393   0.10971   0.10456  -0.0908  0.0004  0.2500  -9.7067   0.0000   0.2793
  18.000   1.5059   0.12315   0.11826  -0.0960  0.0004  0.2500  -9.6595   0.0000   0.2830
  18.500   1.4708   0.13755   0.13293  -0.1024  0.0004  0.2500  -9.5474   0.0000   0.2878
  19.000   1.4354   0.15265   0.14828  -0.1098  0.0004  0.2500  -9.3731   0.0000   0.2938
  19.500   1.3991   0.16858   0.16446  -0.1184  0.0004  0.2500  -9.1178   0.0000   0.3010
  20.000   1.3648   0.18532   0.18143  -0.1281  0.0004  0.2500  -8.7979   0.0000   0.3095


