xflr5 v6.42

 Calculated polar for: NACA_6412

 1 1 Reynolds number fixed          Mach number fixed         

 xtrf =   0.250 (top)        0.250 (bottom)
 Mach =   0.000     Re =     3.000 e 6     Ncrit =   5.000

  alpha     CL        CD       CDp       Cm    Top Xtr Bot Xtr   Cpmin    Chinge    XCp    
 ------- -------- --------- --------- -------- ------- ------- -------- --------- ---------
 -10.000  -0.4520   0.01255   0.00640  -0.1458  0.2500  0.0101  -8.3092   0.0000  -0.0917
  -9.500  -0.3965   0.01199   0.00573  -0.1460  0.2500  0.0105  -7.7165   0.0000  -0.1380
  -9.000  -0.3407   0.01147   0.00512  -0.1461  0.2500  0.0116  -7.1396   0.0000  -0.2000
  -8.500  -0.2845   0.01105   0.00464  -0.1463  0.2500  0.0125  -6.5694   0.0000  -0.2873
  -8.000  -0.2280   0.01070   0.00423  -0.1465  0.2500  0.0134  -6.0151   0.0000  -0.4188
  -7.500  -0.1713   0.01041   0.00388  -0.1467  0.2500  0.0139  -5.4782   0.0000  -0.6384
  -7.000  -0.1144   0.01016   0.00356  -0.1469  0.2500  0.0142  -4.9599   0.0000  -1.0781
  -6.500  -0.0574   0.00990   0.00324  -0.1471  0.2500  0.0149  -4.4652   0.0000  -2.3931
  -6.000  -0.0003   0.00965   0.00295  -0.1473  0.2500  0.0167  -3.9910   0.0000  -465.2152
  -5.500   0.0568   0.00944   0.00272  -0.1475  0.2500  0.0183  -3.5343   0.0000   2.9118
  -5.000   0.1140   0.00929   0.00253  -0.1478  0.2500  0.0193  -3.0963   0.0000   1.5744
  -4.500   0.1713   0.00912   0.00234  -0.1480  0.2500  0.0225  -2.7284   0.0000   1.1310
  -4.000   0.2285   0.00900   0.00221  -0.1482  0.2500  0.0249  -2.3761   0.0000   0.9096
  -3.500   0.2857   0.00889   0.00209  -0.1485  0.2500  0.0289  -2.0409   0.0000   0.7770
  -3.000   0.3429   0.00880   0.00200  -0.1487  0.2500  0.0325  -1.7217   0.0000   0.6886
  -2.500   0.4001   0.00873   0.00193  -0.1489  0.2500  0.0381  -1.4552   0.0000   0.6255
  -2.000   0.4572   0.00868   0.00189  -0.1492  0.2500  0.0431  -1.2026   0.0000   0.5782
  -1.500   0.5142   0.00862   0.00186  -0.1494  0.2500  0.0536  -0.9637   0.0000   0.5414
  -1.000   0.5712   0.00859   0.00186  -0.1497  0.2500  0.0667  -0.9062   0.0000   0.5120
  -0.500   0.6280   0.00858   0.00188  -0.1499  0.2500  0.0800  -0.9483   0.0000   0.4878
   0.000   0.6847   0.00857   0.00192  -0.1501  0.2500  0.0982  -0.9905   0.0000   0.4676
   0.500   0.7413   0.00858   0.00197  -0.1503  0.2500  0.1172  -1.0373   0.0000   0.4505
   1.000   0.7977   0.00860   0.00205  -0.1505  0.2500  0.1442  -1.0897   0.0000   0.4358
   1.500   0.8540   0.00864   0.00215  -0.1507  0.2500  0.1683  -1.1423   0.0000   0.4229
   2.000   0.9100   0.00866   0.00226  -0.1509  0.2500  0.2064  -1.1952   0.0000   0.4116
   2.500   0.9659   0.00871   0.00239  -0.1511  0.2500  0.2441  -1.2484   0.0000   0.4016
   3.000   1.0214   0.00882   0.00252  -0.1511  0.2500  0.2500  -1.3017   0.0000   0.3925
   3.500   1.0767   0.00895   0.00266  -0.1512  0.2500  0.2500  -1.3553   0.0000   0.3843
   4.000   1.1316   0.00908   0.00282  -0.1512  0.2500  0.2500  -1.4091   0.0000   0.3769
   4.500   1.1862   0.00922   0.00299  -0.1511  0.2500  0.2500  -1.4665   0.0000   0.3700
   5.000   1.2404   0.00937   0.00317  -0.1510  0.2500  0.2500  -1.5266   0.0000   0.3637
   5.500   1.2942   0.00952   0.00336  -0.1509  0.2500  0.2500  -1.5928   0.0000   0.3579
   6.000   1.3476   0.00968   0.00358  -0.1507  0.2500  0.2500  -1.6767   0.0000   0.3524
   6.500   1.3929   0.01032   0.00406  -0.1491  0.2159  0.2500  -1.8725   0.0000   0.3469
   7.000   1.4299   0.01141   0.00485  -0.1460  0.1610  0.2500  -2.0821   0.0000   0.3412
   7.500   1.4639   0.01254   0.00572  -0.1424  0.1095  0.2500  -2.3007   0.0000   0.3356
   8.000   1.4943   0.01339   0.00645  -0.1379  0.0829  0.2500  -2.5254   0.0000   0.3299
   8.500   1.5256   0.01440   0.00733  -0.1339  0.0592  0.2500  -2.7762   0.0000   0.3246
   9.000   1.5578   0.01539   0.00826  -0.1302  0.0430  0.2500  -3.0477   0.0000   0.3196
   9.500   1.5897   0.01641   0.00924  -0.1266  0.0327  0.2500  -3.3463   0.0000   0.3149
  10.000   1.6201   0.01750   0.01033  -0.1231  0.0269  0.2500  -3.6506   0.0000   0.3103
  10.500   1.6513   0.01860   0.01146  -0.1198  0.0231  0.2500  -3.9672   0.0000   0.3060
  11.000   1.6796   0.01994   0.01281  -0.1163  0.0193  0.2500  -4.2829   0.0000   0.3018
  11.500   1.7071   0.02134   0.01426  -0.1130  0.0172  0.2500  -4.6042   0.0000   0.2978
  12.000   1.7312   0.02307   0.01603  -0.1095  0.0151  0.2500  -4.9524   0.0000   0.2939
  12.500   1.7534   0.02502   0.01803  -0.1060  0.0128  0.2500  -5.3013   0.0000   0.2901
  13.000   1.7745   0.02712   0.02020  -0.1028  0.0119  0.2500  -5.6546   0.0000   0.2866
  13.500   1.7921   0.02965   0.02278  -0.0995  0.0107  0.2500  -5.9991   0.0000   0.2831
  14.000   1.8071   0.03254   0.02576  -0.0964  0.0094  0.2500  -6.3369   0.0000   0.2799
  14.500   1.8216   0.03562   0.02893  -0.0936  0.0089  0.2500  -6.6792   0.0000   0.2768
  15.000   1.8340   0.03910   0.03251  -0.0911  0.0086  0.2500  -7.0167   0.0000   0.2740
  15.500   1.8430   0.04310   0.03661  -0.0889  0.0081  0.2500  -7.3417   0.0000   0.2713
  16.000   1.8481   0.04771   0.04132  -0.0868  0.0074  0.2500  -7.6752   0.0000   0.2689
  16.500   1.8491   0.05285   0.04656  -0.0849  0.0066  0.2500  -7.9887   0.0000   0.2666
  17.000   1.8491   0.05830   0.05213  -0.0835  0.0060  0.2500  -8.2984   0.0000   0.2646
  17.500   1.8490   0.06395   0.05792  -0.0824  0.0059  0.2500  -8.6120   0.0000   0.2627
  18.000   1.8463   0.07004   0.06413  -0.0816  0.0058  0.2500  -8.9102   0.0000   0.2611
  18.500   1.8406   0.07652   0.07074  -0.0811  0.0056  0.2500  -9.1885   0.0000   0.2596
  19.000   1.8326   0.08341   0.07776  -0.0808  0.0054  0.2500  -9.4513   0.0000   0.2583
  19.500   1.8230   0.09067   0.08517  -0.0810  0.0052  0.2500  -9.7006   0.0000   0.2573
  20.000   1.8116   0.09824   0.09288  -0.0815  0.0050  0.2500  -9.9352   0.0000   0.2565


