xflr5 v6.42

 Calculated polar for: NACA_6412

 1 1 Reynolds number fixed          Mach number fixed         

 xtrf =   0.250 (top)        0.250 (bottom)
 Mach =   0.000     Re =     0.005 e 6     Ncrit =   5.000

  alpha     CL        CD       CDp       Cm    Top Xtr Bot Xtr   Cpmin    Chinge    XCp    
 ------- -------- --------- --------- -------- ------- ------- -------- --------- ---------
 -10.000  -0.2830   0.16031   0.13697  -0.0407  0.2500  0.2500  -1.4897   0.0000   0.0875
  -9.500  -0.2825   0.15558   0.13251  -0.0403  0.2500  0.2500  -1.5140   0.0000   0.0899
  -9.000  -0.2850   0.15112   0.12834  -0.0392  0.2500  0.2500  -1.5395   0.0000   0.0961
  -8.500  -0.2900   0.14681   0.12435  -0.0377  0.2500  0.2500  -1.5664   0.0000   0.1049
  -8.000  -0.2961   0.14250   0.12036  -0.0362  0.2500  0.2500  -1.5938   0.0000   0.1139
  -7.500  -0.3012   0.13800   0.11615  -0.0351  0.2500  0.2500  -1.6202   0.0000   0.1207
  -7.000  -0.3061   0.13341   0.11183  -0.0343  0.2500  0.2500  -1.6460   0.0000   0.1264
  -6.500  -0.3102   0.12870   0.10727  -0.0337  0.2500  0.2500  -1.6708   0.0000   0.1307
  -6.000  -0.3127   0.12382   0.10257  -0.0336  0.2500  0.2500  -1.6930   0.0000   0.1328
  -5.500  -0.3129   0.11879   0.09765  -0.0339  0.2500  0.2500  -1.7118   0.0000   0.1327
  -5.000  -0.3093   0.11356   0.09242  -0.0349  0.2500  0.2500  -1.7246   0.0000   0.1287
  -4.500  -0.3002   0.10813   0.08687  -0.0368  0.2500  0.2500  -1.7290   0.0000   0.1194
  -4.000  -0.2837   0.10253   0.08098  -0.0397  0.2500  0.2500  -1.7211   0.0000   0.1020
  -3.500  -0.2583   0.09689   0.07485  -0.0439  0.2500  0.2500  -1.7153   0.0000   0.0721
  -3.000  -0.2232   0.09137   0.06854  -0.0491  0.2500  0.2500  -1.6965   0.0000   0.0213
  -2.500  -0.1789   0.08626   0.06249  -0.0551  0.2500  0.2500  -1.6564   0.0000  -0.0676
  -2.000  -0.1273   0.08184   0.05692  -0.0612  0.2500  0.2500  -1.5923   0.0000  -0.2430
  -1.500  -0.0725   0.07830   0.05213  -0.0667  0.2500  0.2500  -1.5043   0.0000  -0.6889
  -1.000  -0.0192   0.07576   0.04828  -0.0709  0.2500  0.2500  -1.4079   0.0000  -3.5106
  -0.500   0.0301   0.07416   0.04558  -0.0737  0.2500  0.2500  -1.3081   0.0000   2.7295
   0.000   0.0746   0.07342   0.04388  -0.0752  0.2500  0.2500  -1.1931   0.0000   1.2660
   0.500   0.1150   0.07345   0.04297  -0.0758  0.2500  0.2500  -1.0676   0.0000   0.9128
   1.000   0.1526   0.07408   0.04278  -0.0760  0.2500  0.2500  -0.9486   0.0000   0.7484
   1.500   0.1882   0.07519   0.04312  -0.0759  0.2500  0.2500  -0.8311   0.0000   0.6517
   2.000   0.2225   0.07669   0.04386  -0.0757  0.2500  0.2500  -0.7121   0.0000   0.5873
   2.500   0.2561   0.07846   0.04502  -0.0755  0.2500  0.2500  -0.6076   0.0000   0.5409
   3.000   0.2890   0.08052   0.04651  -0.0754  0.2500  0.2500  -0.6234   0.0000   0.5060
   3.500   0.3214   0.08282   0.04824  -0.0752  0.2500  0.2500  -0.6404   0.0000   0.4785
   4.000   0.3538   0.08548   0.05027  -0.0753  0.2500  0.2500  -0.6561   0.0000   0.4566
   4.500   0.3858   0.08829   0.05255  -0.0754  0.2500  0.2500  -0.6748   0.0000   0.4386
   5.000   0.4173   0.09123   0.05507  -0.0756  0.2500  0.2500  -0.6925   0.0000   0.4236
   5.500   0.4484   0.09429   0.05781  -0.0759  0.2500  0.2500  -0.7126   0.0000   0.4109
   6.000   0.4792   0.09747   0.06076  -0.0761  0.2500  0.2500  -0.7330   0.0000   0.4000
   6.500   0.5095   0.10078   0.06393  -0.0765  0.2500  0.2500  -0.7549   0.0000   0.3906
   7.000   0.5395   0.10419   0.06731  -0.0769  0.2500  0.2500  -0.7785   0.0000   0.3824
   7.500   0.5692   0.10772   0.07084  -0.0774  0.2500  0.2500  -0.8038   0.0000   0.3751
   8.000   0.5985   0.11134   0.07453  -0.0779  0.2500  0.2500  -0.8311   0.0000   0.3687
   8.500   0.6275   0.11507   0.07849  -0.0785  0.2500  0.2500  -0.8621   0.0000   0.3629
   9.000   0.6561   0.11889   0.08249  -0.0791  0.2500  0.2500  -0.8958   0.0000   0.3577
   9.500   0.6843   0.12280   0.08665  -0.0798  0.2500  0.2500  -0.9339   0.0000   0.3530
  10.000   0.7121   0.12682   0.09098  -0.0805  0.2500  0.2500  -0.9791   0.0000   0.3488
  10.500   0.7395   0.13098   0.09564  -0.0814  0.2500  0.2500  -1.0339   0.0000   0.3450
  11.000   0.7667   0.13531   0.10040  -0.0823  0.2500  0.2500  -1.1017   0.0000   0.3415
  11.500   0.7935   0.13978   0.10536  -0.0833  0.2500  0.2500  -1.1802   0.0000   0.3384
  12.000   0.8200   0.14438   0.11050  -0.0844  0.2500  0.2500  -1.2705   0.0000   0.3355
  12.500   0.8458   0.14912   0.11599  -0.0855  0.2500  0.2500  -1.3674   0.0000   0.3329
  13.000   0.8710   0.15413   0.12165  -0.0868  0.2500  0.2500  -1.4680   0.0000   0.3307
  13.500   0.8955   0.15948   0.12769  -0.0883  0.2500  0.2500  -1.5768   0.0000   0.3288
  14.000   0.9193   0.16525   0.13435  -0.0901  0.2500  0.2500  -1.6805   0.0000   0.3273
  14.500   0.9421   0.17155   0.14140  -0.0921  0.2500  0.2500  -1.7894   0.0000   0.3262
  15.000   0.9637   0.17850   0.14913  -0.0944  0.2500  0.2500  -1.8882   0.0000   0.3256
  15.500   0.9840   0.18616   0.15754  -0.0971  0.2500  0.2500  -1.9750   0.0000   0.3255
  16.000   1.0030   0.19456   0.16679  -0.1001  0.2500  0.2500  -2.0591   0.0000   0.3258
  16.500   1.0208   0.20369   0.17661  -0.1035  0.2500  0.2500  -2.1263   0.0000   0.3266
  17.000   1.0372   0.21345   0.18699  -0.1073  0.2500  0.2500  -2.1749   0.0000   0.3278
  17.500   1.0515   0.22354   0.19762  -0.1114  0.2500  0.2500  -2.2027   0.0000   0.3295
  18.000   1.0646   0.23379   0.20833  -0.1157  0.2500  0.2500  -2.2283   0.0000   0.3314
  18.500   1.0767   0.24402   0.21896  -0.1202  0.2500  0.2500  -2.2413   0.0000   0.3335
  19.000   1.0885   0.25414   0.22943  -0.1247  0.2500  0.2500  -2.2449   0.0000   0.3356
  19.500   1.1001   0.26408   0.23981  -0.1294  0.2500  0.2500  -2.2417   0.0000   0.3377
  20.000   1.1118   0.27379   0.24981  -0.1341  0.2500  0.2500  -2.2337   0.0000   0.3397


