xflr5 v6.42

 Calculated polar for: NACA_0012

 1 1 Reynolds number fixed          Mach number fixed         

 xtrf =   0.250 (top)        0.250 (bottom)
 Mach =   0.000     Re =     2.000 e 6     Ncrit =   5.000

  alpha     CL        CD       CDp       Cm    Top Xtr Bot Xtr   Cpmin    Chinge    XCp    
 ------- -------- --------- --------- -------- ------- ------- -------- --------- ---------
 -10.000  -1.0954   0.01388   0.00671  -0.0037  0.2500  0.0158  -5.6832   0.0000   0.2357
  -9.500  -1.0448   0.01331   0.00609  -0.0030  0.2500  0.0177  -5.2225   0.0000   0.2368
  -9.000  -0.9936   0.01276   0.00552  -0.0024  0.2500  0.0200  -4.7723   0.0000   0.2379
  -8.500  -0.9411   0.01233   0.00504  -0.0019  0.2500  0.0213  -4.3324   0.0000   0.2388
  -8.000  -0.8886   0.01186   0.00455  -0.0014  0.2500  0.0247  -3.9258   0.0000   0.2398
  -7.500  -0.8353   0.01144   0.00412  -0.0011  0.2500  0.0276  -3.5540   0.0000   0.2406
  -7.000  -0.7815   0.01106   0.00372  -0.0007  0.2500  0.0318  -3.1952   0.0000   0.2414
  -6.500  -0.7275   0.01069   0.00335  -0.0005  0.2500  0.0368  -2.8488   0.0000   0.2422
  -6.000  -0.6732   0.01032   0.00300  -0.0002  0.2500  0.0447  -2.5168   0.0000   0.2429
  -5.500  -0.6185   0.00998   0.00268  -0.0000  0.2500  0.0543  -2.2286   0.0000   0.2436
  -5.000  -0.5635   0.00967   0.00241   0.0002  0.2500  0.0658  -1.9521   0.0000   0.2442
  -4.500  -0.5084   0.00934   0.00215   0.0003  0.2500  0.0829  -1.6971   0.0000   0.2449
  -4.000  -0.4531   0.00904   0.00191   0.0004  0.2500  0.1033  -1.4695   0.0000   0.2455
  -3.500  -0.3980   0.00869   0.00169   0.0006  0.2500  0.1341  -1.2644   0.0000   0.2463
  -3.000  -0.3423   0.00841   0.00151   0.0006  0.2500  0.1653  -1.0785   0.0000   0.2469
  -2.500  -0.2868   0.00810   0.00135   0.0007  0.2500  0.2072  -0.9176   0.0000   0.2478
  -2.000  -0.2308   0.00784   0.00123   0.0007  0.2500  0.2485  -0.7798   0.0000   0.2487
  -1.500  -0.1732   0.00780   0.00117   0.0006  0.2500  0.2500  -0.6618   0.0000   0.2488
  -1.000  -0.1155   0.00779   0.00113   0.0004  0.2500  0.2500  -0.5632   0.0000   0.2490
  -0.500  -0.0578   0.00778   0.00111   0.0002  0.2500  0.2500  -0.4815   0.0000   0.2490
   0.000   0.0000   0.00778   0.00111  -0.0000  0.2500  0.2500  -0.4140   0.0000   0.4744
   0.500   0.0578   0.00778   0.00111  -0.0002  0.2500  0.2500  -0.4815   0.0000   0.2490
   1.000   0.1155   0.00779   0.00113  -0.0004  0.2500  0.2500  -0.5632   0.0000   0.2490
   1.500   0.1732   0.00780   0.00117  -0.0006  0.2500  0.2500  -0.6618   0.0000   0.2489
   2.000   0.2308   0.00784   0.00123  -0.0007  0.2485  0.2500  -0.7798   0.0000   0.2487
   2.500   0.2868   0.00810   0.00135  -0.0007  0.2072  0.2500  -0.9176   0.0000   0.2478
   3.000   0.3423   0.00841   0.00151  -0.0006  0.1653  0.2500  -1.0785   0.0000   0.2469
   3.500   0.3980   0.00869   0.00169  -0.0006  0.1341  0.2500  -1.2644   0.0000   0.2463
   4.000   0.4531   0.00904   0.00191  -0.0004  0.1033  0.2500  -1.4696   0.0000   0.2455
   4.500   0.5084   0.00934   0.00215  -0.0003  0.0829  0.2500  -1.6972   0.0000   0.2449
   5.000   0.5635   0.00967   0.00241  -0.0002  0.0658  0.2500  -1.9522   0.0000   0.2443
   5.500   0.6186   0.00998   0.00268  -0.0000  0.0543  0.2500  -2.2287   0.0000   0.2436
   6.000   0.6733   0.01032   0.00300   0.0002  0.0447  0.2500  -2.5169   0.0000   0.2429
   6.500   0.7276   0.01069   0.00335   0.0005  0.0368  0.2500  -2.8490   0.0000   0.2422
   7.000   0.7816   0.01106   0.00372   0.0007  0.0318  0.2500  -3.1954   0.0000   0.2414
   7.500   0.8354   0.01145   0.00412   0.0010  0.0276  0.2500  -3.5543   0.0000   0.2406
   8.000   0.8887   0.01186   0.00455   0.0014  0.0247  0.2500  -3.9262   0.0000   0.2398
   8.500   0.9412   0.01233   0.00504   0.0019  0.0213  0.2500  -4.3328   0.0000   0.2388
   9.000   0.9938   0.01276   0.00552   0.0023  0.0200  0.2500  -4.7728   0.0000   0.2379
   9.500   1.0450   0.01331   0.00609   0.0030  0.0177  0.2500  -5.2232   0.0000   0.2368
  10.000   1.0956   0.01388   0.00671   0.0037  0.0158  0.2500  -5.6841   0.0000   0.2357
  10.500   1.1461   0.01442   0.00732   0.0043  0.0152  0.2500  -6.1628   0.0000   0.2346
  11.000   1.1953   0.01504   0.00800   0.0052  0.0142  0.2500  -6.6508   0.0000   0.2333
  11.500   1.2430   0.01575   0.00875   0.0062  0.0131  0.2500  -7.1455   0.0000   0.2319
  12.000   1.2891   0.01654   0.00961   0.0074  0.0119  0.2500  -7.6422   0.0000   0.2304
  12.500   1.3343   0.01734   0.01050   0.0088  0.0112  0.2500  -8.1934   0.0000   0.2289
  13.000   1.3785   0.01813   0.01138   0.0102  0.0109  0.2500  -8.7616   0.0000   0.2272
  13.500   1.4202   0.01902   0.01237   0.0119  0.0105  0.2500  -9.3284   0.0000   0.2254
  14.000   1.4589   0.02003   0.01346   0.0140  0.0100  0.2500  -9.8901   0.0000   0.2234
  14.500   1.4928   0.02115   0.01468   0.0167  0.0095  0.2500  -10.4346   0.0000   0.2209
  15.000   1.5171   0.02243   0.01605   0.0208  0.0090  0.2500  -10.9263   0.0000   0.2175
  15.500   1.5404   0.02406   0.01779   0.0242  0.0085  0.2500  -11.4143   0.0000   0.2145
  16.000   1.5586   0.02613   0.02000   0.0274  0.0081  0.2500  -11.8677   0.0000   0.2116
  16.500   1.5713   0.02886   0.02289   0.0301  0.0077  0.2500  -12.2783   0.0000   0.2091
  17.000   1.5838   0.03195   0.02613   0.0317  0.0077  0.2500  -12.6961   0.0000   0.2071
  17.500   1.5916   0.03593   0.03029   0.0323  0.0076  0.2500  -13.0722   0.0000   0.2057
  18.000   1.5926   0.04119   0.03573   0.0315  0.0076  0.2500  -13.3829   0.0000   0.2050
  18.500   1.5849   0.04808   0.04282   0.0294  0.0075  0.2500  -13.6043   0.0000   0.2050
  19.000   1.5638   0.05731   0.05227   0.0255  0.0075  0.2500  -13.6838   0.0000   0.2059
  19.500   1.5249   0.06973   0.06494   0.0195  0.0074  0.2500  -13.5606   0.0000   0.2080
  20.000   1.4622   0.08655   0.08203   0.0110  0.0074  0.2500  -13.1507   0.0000   0.2119


