xflr5 v6.42

 Calculated polar for: NACA_6412

 1 1 Reynolds number fixed          Mach number fixed         

 xtrf =   0.250 (top)        0.250 (bottom)
 Mach =   0.000     Re =     0.010 e 6     Ncrit =   5.000

  alpha     CL        CD       CDp       Cm    Top Xtr Bot Xtr   Cpmin    Chinge    XCp    
 ------- -------- --------- --------- -------- ------- ------- -------- --------- ---------
 -10.000  -0.2139   0.14403   0.12586  -0.0533  0.2500  0.2500  -1.3384   0.0000  -0.0240
  -9.500  -0.2071   0.13869   0.12064  -0.0541  0.2500  0.2500  -1.3479   0.0000  -0.0354
  -9.000  -0.2019   0.13348   0.11558  -0.0546  0.2500  0.2500  -1.3716   0.0000  -0.0438
  -8.500  -0.1985   0.12842   0.11065  -0.0548  0.2500  0.2500  -1.3957   0.0000  -0.0480
  -8.000  -0.1965   0.12345   0.10587  -0.0548  0.2500  0.2500  -1.4202   0.0000  -0.0496
  -7.500  -0.1936   0.11835   0.10096  -0.0552  0.2500  0.2500  -1.4436   0.0000  -0.0549
  -7.000  -0.1912   0.11327   0.09608  -0.0556  0.2500  0.2500  -1.4666   0.0000  -0.0593
  -6.500  -0.1888   0.10818   0.09118  -0.0561  0.2500  0.2500  -1.4887   0.0000  -0.0638
  -6.000  -0.1861   0.10306   0.08623  -0.0566  0.2500  0.2500  -1.5092   0.0000  -0.0696
  -5.500  -0.1821   0.09787   0.08117  -0.0572  0.2500  0.2500  -1.5267   0.0000  -0.0789
  -5.000  -0.1761   0.09262   0.07599  -0.0581  0.2500  0.2500  -1.5400   0.0000  -0.0938
  -4.500  -0.1639   0.08716   0.07048  -0.0600  0.2500  0.2500  -1.5442   0.0000  -0.1290
  -4.000  -0.1425   0.08144   0.06450  -0.0633  0.2500  0.2500  -1.5349   0.0000  -0.2080
  -3.500  -0.1093   0.07559   0.05822  -0.0681  0.2500  0.2500  -1.5339   0.0000  -0.3889
  -3.000  -0.0628   0.06983   0.05173  -0.0744  0.2500  0.2500  -1.5124   0.0000  -0.9595
  -2.500  -0.0056   0.06456   0.04544  -0.0811  0.2500  0.2500  -1.4638   0.0000  -14.5422
  -2.000   0.0570   0.06021   0.03977  -0.0871  0.2500  0.2500  -1.3859   0.0000   1.7964
  -1.500   0.1181   0.05700   0.03531  -0.0911  0.2500  0.2500  -1.2939   0.0000   1.0281
  -1.000   0.1736   0.05494   0.03220  -0.0931  0.2500  0.2500  -1.1939   0.0000   0.7895
  -0.500   0.2223   0.05394   0.03038  -0.0936  0.2500  0.2500  -1.0722   0.0000   0.6725
   0.000   0.2655   0.05390   0.02975  -0.0934  0.2500  0.2500  -0.9398   0.0000   0.6017
   0.500   0.3047   0.05464   0.02997  -0.0929  0.2500  0.2500  -0.8164   0.0000   0.5535
   1.000   0.3406   0.05596   0.03079  -0.0922  0.2500  0.2500  -0.7323   0.0000   0.5183
   1.500   0.3741   0.05772   0.03217  -0.0914  0.2500  0.2500  -0.7503   0.0000   0.4912
   2.000   0.4058   0.05984   0.03399  -0.0907  0.2500  0.2500  -0.7654   0.0000   0.4697
   2.500   0.4355   0.06225   0.03614  -0.0900  0.2500  0.2500  -0.7814   0.0000   0.4521
   3.000   0.4638   0.06491   0.03860  -0.0893  0.2500  0.2500  -0.7948   0.0000   0.4373
   3.500   0.4909   0.06777   0.04133  -0.0886  0.2500  0.2500  -0.8095   0.0000   0.4247
   4.000   0.5169   0.07079   0.04426  -0.0879  0.2500  0.2500  -0.8229   0.0000   0.4136
   4.500   0.5421   0.07398   0.04739  -0.0873  0.2500  0.2500  -0.8369   0.0000   0.4038
   5.000   0.5669   0.07730   0.05067  -0.0866  0.2500  0.2500  -0.8517   0.0000   0.3950
   5.500   0.5916   0.08076   0.05414  -0.0861  0.2500  0.2500  -0.8678   0.0000   0.3871
   6.000   0.6162   0.08432   0.05777  -0.0856  0.2500  0.2500  -0.8853   0.0000   0.3799
   6.500   0.6407   0.08799   0.06151  -0.0853  0.2500  0.2500  -0.9046   0.0000   0.3734
   7.000   0.6652   0.09174   0.06536  -0.0850  0.2500  0.2500  -0.9258   0.0000   0.3674
   7.500   0.6898   0.09558   0.06941  -0.0848  0.2500  0.2500  -0.9501   0.0000   0.3619
   8.000   0.7143   0.09950   0.07348  -0.0847  0.2500  0.2500  -0.9762   0.0000   0.3568
   8.500   0.7387   0.10350   0.07767  -0.0846  0.2500  0.2500  -1.0074   0.0000   0.3522
   9.000   0.7629   0.10756   0.08195  -0.0846  0.2500  0.2500  -1.0438   0.0000   0.3478
   9.500   0.7873   0.11168   0.08645  -0.0847  0.2500  0.2500  -1.0872   0.0000   0.3438
  10.000   0.8116   0.11588   0.09096  -0.0849  0.2500  0.2500  -1.1445   0.0000   0.3400
  10.500   0.8359   0.12017   0.09561  -0.0852  0.2500  0.2500  -1.2211   0.0000   0.3365
  11.000   0.8601   0.12456   0.10040  -0.0855  0.2500  0.2500  -1.3125   0.0000   0.3333
  11.500   0.8841   0.12903   0.10542  -0.0859  0.2500  0.2500  -1.4135   0.0000   0.3303
  12.000   0.9077   0.13362   0.11051  -0.0865  0.2500  0.2500  -1.5216   0.0000   0.3275
  12.500   0.9306   0.13845   0.11587  -0.0871  0.2500  0.2500  -1.6406   0.0000   0.3250
  13.000   0.9529   0.14364   0.12173  -0.0880  0.2500  0.2500  -1.7581   0.0000   0.3230
  13.500   0.9743   0.14931   0.12801  -0.0892  0.2500  0.2500  -1.8809   0.0000   0.3214
  14.000   0.9945   0.15563   0.13496  -0.0908  0.2500  0.2500  -1.9935   0.0000   0.3203
  14.500   1.0131   0.16279   0.14276  -0.0928  0.2500  0.2500  -2.0965   0.0000   0.3198
  15.000   1.0297   0.17101   0.15159  -0.0954  0.2500  0.2500  -2.1871   0.0000   0.3201
  15.500   1.0442   0.18042   0.16168  -0.0986  0.2500  0.2500  -2.2509   0.0000   0.3211
  16.000   1.0557   0.19102   0.17277  -0.1025  0.2500  0.2500  -2.2818   0.0000   0.3230
  16.500   1.0641   0.20239   0.18455  -0.1069  0.2500  0.2500  -2.2828   0.0000   0.3258
  17.000   1.0701   0.21380   0.19628  -0.1117  0.2500  0.2500  -2.2707   0.0000   0.3290
  17.500   1.0758   0.22491   0.20764  -0.1166  0.2500  0.2500  -2.2476   0.0000   0.3323
  18.000   1.0822   0.23562   0.21857  -0.1216  0.2500  0.2500  -2.2207   0.0000   0.3354
  18.500   1.0896   0.24590   0.22904  -0.1264  0.2500  0.2500  -2.1929   0.0000   0.3382
  19.000   1.0980   0.25580   0.23911  -0.1313  0.2500  0.2500  -2.1654   0.0000   0.3409
  19.500   1.1074   0.26537   0.24893  -0.1360  0.2500  0.2500  -2.1381   0.0000   0.3432
  20.000   1.1176   0.27464   0.25835  -0.1408  0.2500  0.2500  -2.1256   0.0000   0.3454


