xflr5 v6.42

 Calculated polar for: NACA_0012

 1 1 Reynolds number fixed          Mach number fixed         

 xtrf =   0.250 (top)        0.250 (bottom)
 Mach =   0.000     Re =     0.015 e 6     Ncrit =   5.000

  alpha     CL        CD       CDp       Cm    Top Xtr Bot Xtr   Cpmin    Chinge    XCp    
 ------- -------- --------- --------- -------- ------- ------- -------- --------- ---------
 -10.000  -0.6566   0.10857   0.09304  -0.0013  0.2500  0.2361  -2.1271   0.0000   0.2383
  -9.500  -0.6513   0.10016   0.08461  -0.0025  0.2500  0.2497  -2.1207   0.0000   0.2370
  -9.000  -0.6736   0.08784   0.07235  -0.0076  0.2500  0.2500  -2.2519   0.0000   0.2299
  -8.500  -0.6949   0.07539   0.05970  -0.0118  0.2500  0.2500  -2.3804   0.0000   0.2246
  -8.000  -0.6985   0.06396   0.04764  -0.0147  0.2500  0.2500  -2.4483   0.0000   0.2208
  -7.500  -0.6755   0.05507   0.03784  -0.0159  0.2500  0.2500  -2.4075   0.0000   0.2185
  -7.000  -0.6346   0.04940   0.03132  -0.0159  0.2500  0.2500  -2.2824   0.0000   0.2172
  -6.500  -0.5923   0.04605   0.02710  -0.0149  0.2500  0.2500  -2.1072   0.0000   0.2173
  -6.000  -0.5499   0.04373   0.02398  -0.0137  0.2500  0.2500  -1.9145   0.0000   0.2179
  -5.500  -0.5072   0.04196   0.02145  -0.0125  0.2500  0.2500  -1.7314   0.0000   0.2185
  -5.000  -0.4640   0.04052   0.01923  -0.0112  0.2500  0.2500  -1.5516   0.0000   0.2192
  -4.500  -0.4199   0.03931   0.01738  -0.0101  0.2500  0.2500  -1.3801   0.0000   0.2197
  -4.000  -0.3754   0.03831   0.01580  -0.0088  0.2500  0.2500  -1.2207   0.0000   0.2204
  -3.500  -0.3302   0.03747   0.01439  -0.0077  0.2500  0.2500  -1.0741   0.0000   0.2210
  -3.000  -0.2843   0.03677   0.01326  -0.0065  0.2500  0.2500  -0.9389   0.0000   0.2215
  -2.500  -0.2378   0.03621   0.01233  -0.0054  0.2500  0.2500  -0.8180   0.0000   0.2219
  -2.000  -0.1908   0.03577   0.01154  -0.0043  0.2500  0.2500  -0.7119   0.0000   0.2223
  -1.500  -0.1434   0.03543   0.01096  -0.0032  0.2500  0.2500  -0.6203   0.0000   0.2226
  -1.000  -0.0958   0.03519   0.01054  -0.0021  0.2500  0.2500  -0.5418   0.0000   0.2228
  -0.500  -0.0479   0.03505   0.01030  -0.0011  0.2500  0.2500  -0.4747   0.0000   0.2229
   0.000   0.0000   0.03501   0.01022   0.0000  0.2500  0.2500  -0.4169   0.0000   0.0655
   0.500   0.0479   0.03505   0.01030   0.0011  0.2500  0.2500  -0.4747   0.0000   0.2229
   1.000   0.0958   0.03519   0.01054   0.0021  0.2500  0.2500  -0.5418   0.0000   0.2228
   1.500   0.1434   0.03543   0.01096   0.0032  0.2500  0.2500  -0.6203   0.0000   0.2226
   2.000   0.1908   0.03576   0.01154   0.0043  0.2500  0.2500  -0.7119   0.0000   0.2223
   2.500   0.2378   0.03621   0.01233   0.0054  0.2500  0.2500  -0.8180   0.0000   0.2220
   3.000   0.2844   0.03677   0.01326   0.0065  0.2500  0.2500  -0.9390   0.0000   0.2215
   3.500   0.3303   0.03747   0.01439   0.0076  0.2500  0.2500  -1.0742   0.0000   0.2210
   4.000   0.3755   0.03831   0.01580   0.0088  0.2500  0.2500  -1.2208   0.0000   0.2204
   4.500   0.4200   0.03931   0.01738   0.0100  0.2500  0.2500  -1.3803   0.0000   0.2198
   5.000   0.4641   0.04051   0.01923   0.0112  0.2500  0.2500  -1.5519   0.0000   0.2192
   5.500   0.5074   0.04196   0.02145   0.0124  0.2500  0.2500  -1.7317   0.0000   0.2186
   6.000   0.5501   0.04372   0.02398   0.0137  0.2500  0.2500  -1.9150   0.0000   0.2179
   6.500   0.5926   0.04605   0.02710   0.0149  0.2500  0.2500  -2.1078   0.0000   0.2174
   7.000   0.6349   0.04940   0.03132   0.0159  0.2500  0.2500  -2.2830   0.0000   0.2172
   7.500   0.6758   0.05508   0.03784   0.0159  0.2500  0.2500  -2.4081   0.0000   0.2185
   8.000   0.6989   0.06398   0.04766   0.0146  0.2500  0.2500  -2.4489   0.0000   0.2210
   8.500   0.6954   0.07542   0.05973   0.0117  0.2500  0.2500  -2.3811   0.0000   0.2248
   9.000   0.6744   0.08789   0.07239   0.0075  0.2500  0.2500  -2.2528   0.0000   0.2302
   9.500   0.6525   0.10016   0.08462   0.0023  0.2494  0.2500  -2.1234   0.0000   0.2372
  10.000   0.6574   0.10863   0.09310   0.0011  0.2359  0.2500  -2.1274   0.0000   0.2387
  10.500   0.6395   0.11899   0.10337  -0.0035  0.2272  0.2500  -2.0228   0.0000   0.2453
  11.000   0.6408   0.12800   0.11240  -0.0061  0.2199  0.2500  -1.9891   0.0000   0.2488
  11.500   0.6521   0.13667   0.12117  -0.0075  0.2130  0.2500  -1.9940   0.0000   0.2503
  12.000   0.6415   0.14587   0.13031  -0.0118  0.2086  0.2500  -1.9023   0.0000   0.2567
  12.500   0.6396   0.15441   0.13884  -0.0152  0.2039  0.2500  -1.8559   0.0000   0.2615
  13.000   0.6432   0.16329   0.14775  -0.0185  0.2052  0.2500  -1.8182   0.0000   0.2661
  13.500   0.6485   0.17185   0.15635  -0.0218  0.2061  0.2500  -1.7854   0.0000   0.2704
  14.000   0.6537   0.17976   0.16429  -0.0249  0.2047  0.2500  -1.7547   0.0000   0.2744
  14.500   0.6613   0.18775   0.17232  -0.0281  0.2057  0.2500  -1.7263   0.0000   0.2782
  15.000   0.6663   0.19661   0.18125  -0.0330  0.2276  0.2500  -1.6530   0.0000   0.2849
  15.500   0.6746   0.20525   0.18998  -0.0378  0.2500  0.2500  -1.5955   0.0000   0.2908
  16.000   0.6860   0.21266   0.19745  -0.0410  0.2500  0.2500  -1.5752   0.0000   0.2939
  16.500   0.6982   0.22001   0.20492  -0.0442  0.2500  0.2500  -1.5750   0.0000   0.2969
  17.000   0.7110   0.22730   0.21227  -0.0475  0.2500  0.2500  -1.5757   0.0000   0.2997
  17.500   0.7243   0.23454   0.21958  -0.0509  0.2500  0.2500  -1.5751   0.0000   0.3025
  18.000   0.7381   0.24177   0.22687  -0.0543  0.2500  0.2500  -1.5730   0.0000   0.3052
  18.500   0.7523   0.24897   0.23414  -0.0578  0.2500  0.2500  -1.5695   0.0000   0.3078
  19.000   0.7668   0.25616   0.24140  -0.0614  0.2500  0.2500  -1.5642   0.0000   0.3103
  19.500   0.7815   0.26332   0.24869  -0.0651  0.2500  0.2500  -1.5572   0.0000   0.3127
  20.000   0.7965   0.27045   0.25589  -0.0688  0.2500  0.2500  -1.5487   0.0000   0.3151


