xflr5 v6.42

 Calculated polar for: NACA_6412

 1 1 Reynolds number fixed          Mach number fixed         

 xtrf =   0.250 (top)        0.250 (bottom)
 Mach =   0.000     Re =     0.075 e 6     Ncrit =   5.000

  alpha     CL        CD       CDp       Cm    Top Xtr Bot Xtr   Cpmin    Chinge    XCp    
 ------- -------- --------- --------- -------- ------- ------- -------- --------- ---------
 -10.000  -0.1697   0.12105   0.11150  -0.0772  0.2500  0.0692  -1.6363   0.0000  -0.2358
  -9.500  -0.1444   0.11097   0.10140  -0.0761  0.2500  0.0716  -1.5303   0.0000  -0.3118
  -9.000  -0.1195   0.10515   0.09552  -0.0755  0.2500  0.0779  -1.3954   0.0000  -0.4217
  -8.500  -0.1093   0.09929   0.08970  -0.0778  0.2500  0.0777  -1.4147   0.0000  -0.5026
  -8.000  -0.1189   0.08954   0.08000  -0.0849  0.2500  0.0529  -1.7820   0.0000  -0.4992
  -7.500  -0.1100   0.08354   0.07406  -0.0862  0.2500  0.0517  -1.8124   0.0000  -0.5689
  -7.000  -0.0993   0.07670   0.06726  -0.0907  0.2500  0.0509  -1.8944   0.0000  -0.6996
  -6.500  -0.0828   0.06841   0.05895  -0.0988  0.2500  0.0514  -2.0266   0.0000  -0.9832
  -6.000  -0.0541   0.05499   0.04519  -0.1143  0.2500  0.0540  -2.3660   0.0000  -1.9198
  -5.500  -0.0186   0.04461   0.03426  -0.1218  0.2500  0.0550  -2.4827   0.0000  -6.4473
  -5.000   0.0260   0.03876   0.02788  -0.1252  0.2500  0.0578  -2.3787   0.0000   5.1657
  -4.500   0.0767   0.03425   0.02259  -0.1276  0.2500  0.0656  -2.2275   0.0000   1.9446
  -4.000   0.1307   0.02950   0.01683  -0.1294  0.2500  0.0712  -2.1340   0.0000   1.2565
  -3.500   0.1828   0.02795   0.01498  -0.1295  0.2500  0.0816  -1.9028   0.0000   0.9686
  -3.000   0.2370   0.02576   0.01223  -0.1296  0.2500  0.0917  -1.7145   0.0000   0.8032
  -2.500   0.2901   0.02480   0.01100  -0.1293  0.2500  0.1084  -1.4798   0.0000   0.6998
  -2.000   0.3427   0.02384   0.00994  -0.1289  0.2500  0.1282  -1.2829   0.0000   0.6285
  -1.500   0.3951   0.02313   0.00910  -0.1283  0.2500  0.1541  -1.0880   0.0000   0.5759
  -1.000   0.4470   0.02266   0.00854  -0.1276  0.2500  0.1889  -0.8933   0.0000   0.5355
  -0.500   0.4995   0.02232   0.00823  -0.1272  0.2500  0.2379  -0.8881   0.0000   0.5036
   0.000   0.5523   0.02214   0.00784  -0.1265  0.2500  0.2500  -0.9296   0.0000   0.4774
   0.500   0.6040   0.02227   0.00772  -0.1258  0.2500  0.2500  -0.9709   0.0000   0.4558
   1.000   0.6549   0.02252   0.00778  -0.1250  0.2500  0.2500  -1.0121   0.0000   0.4377
   1.500   0.7050   0.02283   0.00796  -0.1241  0.2500  0.2500  -1.0530   0.0000   0.4222
   2.000   0.7544   0.02319   0.00823  -0.1231  0.2500  0.2500  -1.0966   0.0000   0.4088
   2.500   0.8030   0.02361   0.00860  -0.1220  0.2500  0.2500  -1.1402   0.0000   0.3969
   3.000   0.8507   0.02407   0.00907  -0.1208  0.2500  0.2500  -1.1834   0.0000   0.3864
   3.500   0.8972   0.02458   0.00961  -0.1195  0.2500  0.2500  -1.2264   0.0000   0.3769
   4.000   0.9418   0.02513   0.01022  -0.1178  0.2500  0.2500  -1.2706   0.0000   0.3682
   4.500   0.9850   0.02575   0.01097  -0.1160  0.2500  0.2500  -1.3169   0.0000   0.3602
   5.000   1.0278   0.02645   0.01179  -0.1142  0.2500  0.2500  -1.3636   0.0000   0.3529
   5.500   1.0700   0.02723   0.01272  -0.1124  0.2500  0.2500  -1.4130   0.0000   0.3462
   6.000   1.1110   0.02809   0.01382  -0.1105  0.2500  0.2500  -1.4647   0.0000   0.3399
   6.500   1.1505   0.02905   0.01500  -0.1085  0.2500  0.2500  -1.5184   0.0000   0.3341
   7.000   1.1885   0.03012   0.01636  -0.1064  0.2500  0.2500  -1.5768   0.0000   0.3286
   7.500   1.2247   0.03132   0.01785  -0.1042  0.2500  0.2500  -1.7322   0.0000   0.3234
   8.000   1.2591   0.03267   0.01951  -0.1019  0.2500  0.2500  -1.9084   0.0000   0.3185
   8.500   1.2915   0.03419   0.02142  -0.0996  0.2500  0.2500  -2.0993   0.0000   0.3138
   9.000   1.3215   0.03592   0.02353  -0.0971  0.2500  0.2500  -2.3028   0.0000   0.3094
   9.500   1.3491   0.03791   0.02591  -0.0946  0.2500  0.2500  -2.5087   0.0000   0.3052
  10.000   1.3739   0.04018   0.02862  -0.0921  0.2500  0.2500  -2.7288   0.0000   0.3012
  10.500   1.3959   0.04279   0.03173  -0.0896  0.2500  0.2500  -2.9448   0.0000   0.2975
  11.000   1.4148   0.04579   0.03522  -0.0872  0.2500  0.2500  -3.1603   0.0000   0.2940
  11.500   1.4302   0.04922   0.03917  -0.0848  0.2500  0.2500  -3.3830   0.0000   0.2908
  12.000   1.4429   0.05311   0.04364  -0.0827  0.2500  0.2500  -3.5968   0.0000   0.2878
  12.500   1.4530   0.05742   0.04854  -0.0807  0.2500  0.2500  -3.8011   0.0000   0.2851
  13.000   1.4609   0.06204   0.05371  -0.0787  0.2472  0.2500  -3.9951   0.0000   0.2824
  13.500   1.4370   0.07021   0.06181  -0.0769  0.2051  0.2500  -4.0650   0.0000   0.2810
  14.000   1.4092   0.07949   0.07094  -0.0761  0.1660  0.2500  -4.1083   0.0000   0.2804
  14.500   1.3813   0.08937   0.08067  -0.0762  0.1345  0.2500  -4.1390   0.0000   0.2806
  15.000   1.3588   0.09890   0.09010  -0.0768  0.1115  0.2500  -4.1833   0.0000   0.2809
  15.500   1.3439   0.10754   0.09876  -0.0776  0.0938  0.2500  -4.2659   0.0000   0.2811
  16.000   1.3366   0.11516   0.10653  -0.0783  0.0805  0.2500  -4.3785   0.0000   0.2809
  16.500   1.3335   0.12194   0.11329  -0.0789  0.0710  0.2500  -4.5100   0.0000   0.2804
  17.000   1.3359   0.12822   0.11983  -0.0799  0.0626  0.2500  -4.6627   0.0000   0.2799
  17.500   1.3421   0.13330   0.12492  -0.0801  0.0559  0.2500  -4.8437   0.0000   0.2787
  18.000   1.3512   0.13842   0.13044  -0.0806  0.0512  0.2500  -5.0109   0.0000   0.2775
  18.500   1.3548   0.14464   0.13692  -0.0823  0.0470  0.2500  -5.1581   0.0000   0.2774
  19.000   1.3623   0.14970   0.14204  -0.0834  0.0430  0.2500  -5.3375   0.0000   0.2767
  19.500   1.3518   0.15986   0.15272  -0.0882  0.0410  0.2500  -5.3417   0.0000   0.2796
  20.000   1.3333   0.17247   0.16580  -0.0950  0.0396  0.2500  -5.2635   0.0000   0.2846


