xflr5 v6.42

 Calculated polar for: NACA_6412

 1 1 Reynolds number fixed          Mach number fixed         

 xtrf =   0.250 (top)        0.250 (bottom)
 Mach =   0.000     Re =     0.040 e 6     Ncrit =   5.000

  alpha     CL        CD       CDp       Cm    Top Xtr Bot Xtr   Cpmin    Chinge    XCp    
 ------- -------- --------- --------- -------- ------- ------- -------- --------- ---------
 -10.000  -0.1587   0.12502   0.11320  -0.0668  0.2500  0.1296  -1.3096   0.0000  -0.2034
  -9.500  -0.1691   0.12408   0.11242  -0.0709  0.2500  0.1343  -1.4049   0.0000  -0.1972
  -9.000  -0.1714   0.12053   0.10901  -0.0740  0.2500  0.1350  -1.4653   0.0000  -0.2069
  -8.500  -0.1700   0.11566   0.10424  -0.0764  0.2500  0.1353  -1.5049   0.0000  -0.2231
  -8.000  -0.1161   0.10268   0.09106  -0.0720  0.2500  0.1484  -1.2932   0.0000  -0.4050
  -7.500  -0.1270   0.09642   0.08490  -0.0777  0.2500  0.1079  -1.5253   0.0000  -0.3906
  -7.000  -0.1266   0.08776   0.07628  -0.0886  0.2500  0.0882  -1.8104   0.0000  -0.4760
  -6.500  -0.1080   0.08090   0.06943  -0.0878  0.2500  0.0861  -1.7701   0.0000  -0.5914
  -6.000  -0.0895   0.07385   0.06234  -0.0915  0.2500  0.0846  -1.8058   0.0000  -0.8030
  -5.500  -0.0636   0.06554   0.05384  -0.0993  0.2500  0.0863  -1.9023   0.0000  -1.3533
  -5.000  -0.0288   0.05707   0.04498  -0.1064  0.2500  0.0899  -1.9584   0.0000  -3.5282
  -4.500   0.0115   0.05071   0.03821  -0.1096  0.2500  0.0922  -1.8941   0.0000   9.9881
  -4.000   0.0579   0.04583   0.03286  -0.1123  0.2500  0.1003  -1.7812   0.0000   2.2235
  -3.500   0.1162   0.03970   0.02556  -0.1170  0.2500  0.1093  -1.7699   0.0000   1.2717
  -3.000   0.1662   0.03681   0.02229  -0.1176  0.2500  0.1228  -1.6035   0.0000   0.9658
  -2.500   0.2226   0.03374   0.01835  -0.1187  0.2500  0.1381  -1.4679   0.0000   0.7882
  -2.000   0.2753   0.03215   0.01619  -0.1185  0.2500  0.1615  -1.2980   0.0000   0.6831
  -1.500   0.3277   0.03092   0.01469  -0.1181  0.2500  0.1920  -1.1253   0.0000   0.6116
  -1.000   0.3798   0.02999   0.01358  -0.1175  0.2500  0.2321  -0.9496   0.0000   0.5595
  -0.500   0.4330   0.02898   0.01220  -0.1168  0.2500  0.2500  -0.8452   0.0000   0.5189
   0.000   0.4837   0.02870   0.01156  -0.1159  0.2500  0.2500  -0.8812   0.0000   0.4879
   0.500   0.5328   0.02887   0.01141  -0.1149  0.2500  0.2500  -0.9174   0.0000   0.4632
   1.000   0.5809   0.02923   0.01151  -0.1139  0.2500  0.2500  -0.9556   0.0000   0.4428
   1.500   0.6280   0.02970   0.01181  -0.1127  0.2500  0.2500  -0.9932   0.0000   0.4256
   2.000   0.6735   0.03026   0.01225  -0.1114  0.2500  0.2500  -1.0310   0.0000   0.4108
   2.500   0.7177   0.03091   0.01283  -0.1099  0.2500  0.2500  -1.0695   0.0000   0.3979
   3.000   0.7612   0.03165   0.01356  -0.1083  0.2500  0.2500  -1.1075   0.0000   0.3865
   3.500   0.8041   0.03250   0.01446  -0.1069  0.2500  0.2500  -1.1479   0.0000   0.3765
   4.000   0.8460   0.03346   0.01550  -0.1053  0.2500  0.2500  -1.1878   0.0000   0.3675
   4.500   0.8866   0.03454   0.01670  -0.1037  0.2500  0.2500  -1.2300   0.0000   0.3593
   5.000   0.9257   0.03575   0.01811  -0.1021  0.2500  0.2500  -1.2709   0.0000   0.3519
   5.500   0.9631   0.03711   0.01967  -0.1003  0.2500  0.2500  -1.3134   0.0000   0.3452
   6.000   0.9987   0.03864   0.02145  -0.0985  0.2500  0.2500  -1.3562   0.0000   0.3390
   6.500   1.0322   0.04037   0.02352  -0.0967  0.2500  0.2500  -1.3998   0.0000   0.3333
   7.000   1.0634   0.04234   0.02582  -0.0948  0.2500  0.2500  -1.4450   0.0000   0.3280
   7.500   1.0918   0.04463   0.02847  -0.0929  0.2500  0.2500  -1.4918   0.0000   0.3232
   8.000   1.1171   0.04728   0.03159  -0.0910  0.2500  0.2500  -1.5940   0.0000   0.3188
   8.500   1.1389   0.05038   0.03513  -0.0892  0.2500  0.2500  -1.7199   0.0000   0.3149
   9.000   1.1566   0.05404   0.03925  -0.0875  0.2500  0.2500  -1.8511   0.0000   0.3114
   9.500   1.1695   0.05841   0.04412  -0.0860  0.2500  0.2500  -1.9775   0.0000   0.3085
  10.000   1.1774   0.06356   0.04985  -0.0848  0.2500  0.2500  -2.1028   0.0000   0.3062
  10.500   1.1810   0.06949   0.05630  -0.0840  0.2500  0.2500  -2.2163   0.0000   0.3044
  11.000   1.1821   0.07596   0.06328  -0.0834  0.2500  0.2500  -2.3209   0.0000   0.3031
  11.500   1.1837   0.08254   0.07035  -0.0831  0.2500  0.2500  -2.4335   0.0000   0.3019
  12.000   1.1878   0.08886   0.07716  -0.0828  0.2500  0.2500  -2.5591   0.0000   0.3006
  12.500   1.1947   0.09483   0.08368  -0.0825  0.2500  0.2500  -2.6944   0.0000   0.2990
  13.000   1.2035   0.10067   0.09002  -0.0822  0.2500  0.2500  -2.8351   0.0000   0.2974
  13.500   1.2139   0.10648   0.09635  -0.0820  0.2500  0.2500  -2.9881   0.0000   0.2958
  14.000   1.2224   0.11326   0.10369  -0.0821  0.2500  0.2500  -3.1264   0.0000   0.2946
  14.500   1.2519   0.11570   0.10673  -0.0802  0.2431  0.2500  -3.3680   0.0000   0.2904
  15.000   1.2444   0.12260   0.11386  -0.0807  0.2086  0.2500  -3.4517   0.0000   0.2902
  15.500   1.2833   0.11985   0.11106  -0.0767  0.1704  0.2500  -3.7985   0.0000   0.2837
  16.000   1.2853   0.12546   0.11656  -0.0766  0.1414  0.2500  -3.9214   0.0000   0.2824
  16.500   1.2846   0.13207   0.12312  -0.0773  0.1207  0.2500  -4.0362   0.0000   0.2819
  17.000   1.2865   0.13855   0.12966  -0.0782  0.1064  0.2500  -4.1521   0.0000   0.2815
  17.500   1.2766   0.14831   0.13971  -0.0815  0.0959  0.2500  -4.1673   0.0000   0.2836
  18.000   1.2681   0.15817   0.14974  -0.0853  0.0878  0.2500  -4.1769   0.0000   0.2861
  18.500   1.2074   0.18497   0.17691  -0.1002  0.0849  0.2500  -3.6514   0.0000   0.3018
  19.000   1.1715   0.20913   0.20095  -0.1134  0.0809  0.2500  -3.1944   0.0000   0.3155
  19.500   1.1768   0.21845   0.21034  -0.1179  0.0757  0.2500  -3.1926   0.0000   0.3179
  20.000   1.1781   0.22947   0.22140  -0.1237  0.0709  0.2500  -3.1293   0.0000   0.3218


