xflr5 v6.42

 Calculated polar for: NACA_0012

 1 1 Reynolds number fixed          Mach number fixed         

 xtrf =   0.250 (top)        0.250 (bottom)
 Mach =   0.000     Re =     0.055 e 6     Ncrit =   5.000

  alpha     CL        CD       CDp       Cm    Top Xtr Bot Xtr   Cpmin    Chinge    XCp    
 ------- -------- --------- --------- -------- ------- ------- -------- --------- ---------
 -10.000  -0.9272   0.04832   0.03697  -0.0242  0.2500  0.0729  -4.0841   0.0000   0.2133
  -9.500  -0.9060   0.04342   0.03125  -0.0214  0.2500  0.0783  -3.9368   0.0000   0.2162
  -9.000  -0.8731   0.04006   0.02784  -0.0196  0.2500  0.0873  -3.6689   0.0000   0.2180
  -8.500  -0.8349   0.03662   0.02369  -0.0176  0.2500  0.0972  -3.4519   0.0000   0.2198
  -8.000  -0.7967   0.03390   0.02096  -0.0158  0.2500  0.1123  -3.2072   0.0000   0.2216
  -7.500  -0.7558   0.03136   0.01825  -0.0139  0.2500  0.1306  -2.9671   0.0000   0.2234
  -7.000  -0.7146   0.02919   0.01594  -0.0120  0.2500  0.1582  -2.7206   0.0000   0.2254
  -6.500  -0.6735   0.02721   0.01402  -0.0101  0.2500  0.1968  -2.4758   0.0000   0.2276
  -6.000  -0.6318   0.02552   0.01245  -0.0082  0.2500  0.2497  -2.2522   0.0000   0.2301
  -5.500  -0.5797   0.02437   0.01070  -0.0072  0.2500  0.2500  -2.0159   0.0000   0.2311
  -5.000  -0.5280   0.02368   0.00950  -0.0063  0.2500  0.2500  -1.7813   0.0000   0.2319
  -4.500  -0.4760   0.02315   0.00848  -0.0055  0.2500  0.2500  -1.5678   0.0000   0.2325
  -4.000  -0.4236   0.02272   0.00767  -0.0048  0.2500  0.2500  -1.3655   0.0000   0.2330
  -3.500  -0.3710   0.02236   0.00698  -0.0042  0.2500  0.2500  -1.1836   0.0000   0.2333
  -3.000  -0.3181   0.02206   0.00637  -0.0036  0.2500  0.2500  -1.0209   0.0000   0.2335
  -2.500  -0.2649   0.02182   0.00590  -0.0030  0.2500  0.2500  -0.8763   0.0000   0.2334
  -2.000  -0.2118   0.02163   0.00550  -0.0025  0.2500  0.2500  -0.7511   0.0000   0.2334
  -1.500  -0.1590   0.02149   0.00521  -0.0018  0.2500  0.2500  -0.6446   0.0000   0.2337
  -1.000  -0.1061   0.02139   0.00500  -0.0012  0.2500  0.2500  -0.5548   0.0000   0.2338
  -0.500  -0.0531   0.02133   0.00488  -0.0006  0.2500  0.2500  -0.4808   0.0000   0.2339
   0.000   0.0000   0.02131   0.00484  -0.0000  0.2500  0.2500  -0.4177   0.0000   0.4057
   0.500   0.0531   0.02133   0.00488   0.0006  0.2500  0.2500  -0.4808   0.0000   0.2339
   1.000   0.1061   0.02139   0.00500   0.0012  0.2500  0.2500  -0.5548   0.0000   0.2338
   1.500   0.1590   0.02149   0.00521   0.0018  0.2500  0.2500  -0.6446   0.0000   0.2337
   2.000   0.2119   0.02163   0.00550   0.0025  0.2500  0.2500  -0.7511   0.0000   0.2334
   2.500   0.2649   0.02182   0.00590   0.0030  0.2500  0.2500  -0.8763   0.0000   0.2335
   3.000   0.3181   0.02206   0.00637   0.0036  0.2500  0.2500  -1.0210   0.0000   0.2335
   3.500   0.3710   0.02236   0.00698   0.0042  0.2500  0.2500  -1.1837   0.0000   0.2333
   4.000   0.4237   0.02272   0.00767   0.0048  0.2500  0.2500  -1.3656   0.0000   0.2330
   4.500   0.4760   0.02315   0.00848   0.0055  0.2500  0.2500  -1.5679   0.0000   0.2325
   5.000   0.5281   0.02368   0.00949   0.0063  0.2500  0.2500  -1.7814   0.0000   0.2319
   5.500   0.5798   0.02437   0.01070   0.0071  0.2500  0.2500  -2.0161   0.0000   0.2311
   6.000   0.6318   0.02552   0.01245   0.0082  0.2496  0.2500  -2.2524   0.0000   0.2301
   6.500   0.6736   0.02721   0.01402   0.0101  0.1967  0.2500  -2.4760   0.0000   0.2277
   7.000   0.7148   0.02919   0.01594   0.0120  0.1581  0.2500  -2.7210   0.0000   0.2255
   7.500   0.7560   0.03136   0.01825   0.0139  0.1306  0.2500  -2.9676   0.0000   0.2235
   8.000   0.7969   0.03391   0.02096   0.0157  0.1123  0.2500  -3.2077   0.0000   0.2216
   8.500   0.8351   0.03662   0.02370   0.0176  0.0972  0.2500  -3.4525   0.0000   0.2199
   9.000   0.8734   0.04006   0.02784   0.0195  0.0873  0.2500  -3.6697   0.0000   0.2181
   9.500   0.9063   0.04343   0.03126   0.0214  0.0783  0.2500  -3.9378   0.0000   0.2163
  10.000   0.9276   0.04833   0.03699   0.0242  0.0728  0.2500  -4.0850   0.0000   0.2134
  10.500   0.9353   0.05410   0.04344   0.0272  0.0689  0.2500  -4.1761   0.0000   0.2098
  11.000   0.9313   0.05943   0.04921   0.0303  0.0654  0.2500  -4.2556   0.0000   0.2057
  11.500   0.9276   0.06460   0.05456   0.0324  0.0622  0.2500  -4.3670   0.0000   0.2026
  12.000   0.8895   0.07420   0.06453   0.0308  0.0612  0.2500  -4.2426   0.0000   0.2019
  13.000   0.7057   0.12905   0.11977  -0.0044  0.0649  0.2500  -2.7145   0.0000   0.2421
  13.500   0.7196   0.13368   0.12445  -0.0045  0.0616  0.2500  -2.8689   0.0000   0.2414
  14.000   0.7084   0.14700   0.13770  -0.0103  0.0612  0.2500  -2.6549   0.0000   0.2494
  14.500   0.7055   0.15854   0.14924  -0.0152  0.0611  0.2500  -2.5007   0.0000   0.2559
  15.000   0.7073   0.16916   0.15987  -0.0196  0.0610  0.2500  -2.3912   0.0000   0.2617
  15.500   0.7043   0.18030   0.17100  -0.0258  0.0599  0.2500  -2.2235   0.0000   0.2703
  16.000   0.7064   0.18985   0.18054  -0.0311  0.0586  0.2500  -2.1117   0.0000   0.2772
  16.500   0.7183   0.19841   0.18915  -0.0342  0.0598  0.2500  -2.0975   0.0000   0.2803
  17.500   0.7339   0.22203   0.21289  -0.0446  0.0952  0.2500  -1.7606   0.0000   0.2928
  18.000   0.7405   0.22703   0.21788  -0.0503  0.0877  0.2500  -1.6966   0.0000   0.2991
  18.500   0.7621   0.23431   0.22526  -0.0514  0.0804  0.2500  -1.7917   0.0000   0.2979
  19.000   0.7952   0.25126   0.24235  -0.0503  0.0780  0.2500  -1.9408   0.0000   0.2934
  19.500   0.8034   0.25758   0.24868  -0.0553  0.0778  0.2500  -1.9011   0.0000   0.2982
  20.000   0.8099   0.26185   0.25295  -0.0611  0.0774  0.2500  -1.8422   0.0000   0.3039


