xflr5 v6.42

 Calculated polar for: NACA_0012

 1 1 Reynolds number fixed          Mach number fixed         

 xtrf =   0.250 (top)        0.250 (bottom)
 Mach =   0.000     Re =     0.550 e 6     Ncrit =   5.000

  alpha     CL        CD       CDp       Cm    Top Xtr Bot Xtr   Cpmin    Chinge    XCp    
 ------- -------- --------- --------- -------- ------- ------- -------- --------- ---------
 -10.000  -1.0570   0.01888   0.01045  -0.0093  0.2500  0.0244  -5.4107   0.0000   0.2302
  -9.500  -1.0108   0.01800   0.00944  -0.0080  0.2500  0.0266  -4.9873   0.0000   0.2317
  -9.000  -0.9631   0.01722   0.00852  -0.0070  0.2500  0.0287  -4.5713   0.0000   0.2330
  -8.500  -0.9155   0.01634   0.00760  -0.0059  0.2500  0.0330  -4.1689   0.0000   0.2344
  -8.000  -0.8654   0.01572   0.00686  -0.0051  0.2500  0.0368  -3.7914   0.0000   0.2355
  -7.500  -0.8157   0.01497   0.00609  -0.0042  0.2500  0.0433  -3.4459   0.0000   0.2367
  -7.000  -0.7643   0.01441   0.00546  -0.0036  0.2500  0.0501  -3.1046   0.0000   0.2377
  -6.500  -0.7129   0.01381   0.00485  -0.0029  0.2500  0.0607  -2.7746   0.0000   0.2386
  -6.000  -0.6609   0.01325   0.00431  -0.0024  0.2500  0.0749  -2.4631   0.0000   0.2396
  -5.500  -0.6084   0.01272   0.00381  -0.0019  0.2500  0.0952  -2.1867   0.0000   0.2405
  -5.000  -0.5555   0.01223   0.00338  -0.0014  0.2500  0.1202  -1.9198   0.0000   0.2414
  -4.500  -0.5028   0.01169   0.00297  -0.0010  0.2500  0.1570  -1.6772   0.0000   0.2423
  -4.000  -0.4497   0.01120   0.00262  -0.0005  0.2500  0.2008  -1.4561   0.0000   0.2433
  -3.500  -0.3962   0.01074   0.00233  -0.0002  0.2500  0.2498  -1.2573   0.0000   0.2444
  -3.000  -0.3399   0.01066   0.00213  -0.0001  0.2500  0.2500  -1.0728   0.0000   0.2447
  -2.500  -0.2834   0.01059   0.00197  -0.0001  0.2500  0.2500  -0.9120   0.0000   0.2450
  -2.000  -0.2268   0.01053   0.00184  -0.0000  0.2500  0.2500  -0.7747   0.0000   0.2452
  -1.500  -0.1702   0.01049   0.00175  -0.0000  0.2500  0.2500  -0.6589   0.0000   0.2454
  -1.000  -0.1135   0.01046   0.00168  -0.0000  0.2500  0.2500  -0.5620   0.0000   0.2455
  -0.500  -0.0567   0.01044   0.00163  -0.0000  0.2500  0.2500  -0.4820   0.0000   0.2456
   0.000   0.0000   0.01043   0.00162  -0.0000  0.2500  0.2500  -0.4155   0.0000   0.4668
   0.500   0.0567   0.01044   0.00163   0.0000  0.2500  0.2500  -0.4820   0.0000   0.2456
   1.000   0.1135   0.01046   0.00168   0.0000  0.2500  0.2500  -0.5620   0.0000   0.2455
   1.500   0.1702   0.01049   0.00175   0.0000  0.2500  0.2500  -0.6589   0.0000   0.2454
   2.000   0.2268   0.01053   0.00184   0.0000  0.2500  0.2500  -0.7747   0.0000   0.2452
   2.500   0.2834   0.01059   0.00197   0.0001  0.2500  0.2500  -0.9120   0.0000   0.2450
   3.000   0.3399   0.01066   0.00213   0.0001  0.2500  0.2500  -1.0728   0.0000   0.2447
   3.500   0.3962   0.01074   0.00233   0.0002  0.2498  0.2500  -1.2573   0.0000   0.2444
   4.000   0.4497   0.01120   0.00262   0.0005  0.2007  0.2500  -1.4561   0.0000   0.2433
   4.500   0.5028   0.01169   0.00297   0.0009  0.1570  0.2500  -1.6773   0.0000   0.2424
   5.000   0.5556   0.01223   0.00338   0.0014  0.1202  0.2500  -1.9199   0.0000   0.2414
   5.500   0.6085   0.01272   0.00381   0.0018  0.0952  0.2500  -2.1868   0.0000   0.2405
   6.000   0.6609   0.01325   0.00431   0.0024  0.0749  0.2500  -2.4633   0.0000   0.2396
   6.500   0.7130   0.01381   0.00485   0.0029  0.0607  0.2500  -2.7748   0.0000   0.2387
   7.000   0.7644   0.01441   0.00546   0.0035  0.0501  0.2500  -3.1048   0.0000   0.2377
   7.500   0.8158   0.01497   0.00609   0.0042  0.0433  0.2500  -3.4462   0.0000   0.2367
   8.000   0.8656   0.01572   0.00686   0.0051  0.0368  0.2500  -3.7918   0.0000   0.2355
   8.500   0.9157   0.01634   0.00760   0.0058  0.0330  0.2500  -4.1695   0.0000   0.2344
   9.000   0.9633   0.01722   0.00852   0.0069  0.0286  0.2500  -4.5720   0.0000   0.2331
   9.500   1.0111   0.01800   0.00944   0.0080  0.0266  0.2500  -4.9882   0.0000   0.2317
  10.000   1.0572   0.01888   0.01046   0.0092  0.0244  0.2500  -5.4118   0.0000   0.2303
  10.500   1.1004   0.01999   0.01166   0.0108  0.0221  0.2500  -5.8319   0.0000   0.2286
  11.000   1.1421   0.02112   0.01294   0.0125  0.0206  0.2500  -6.2555   0.0000   0.2267
  11.500   1.1826   0.02222   0.01422   0.0143  0.0193  0.2500  -6.6886   0.0000   0.2249
  12.000   1.2193   0.02350   0.01566   0.0166  0.0181  0.2500  -7.1124   0.0000   0.2227
  12.500   1.2501   0.02499   0.01729   0.0194  0.0170  0.2500  -7.5329   0.0000   0.2199
  13.000   1.2670   0.02705   0.01952   0.0239  0.0160  0.2500  -7.8938   0.0000   0.2158
  13.500   1.2858   0.02930   0.02200   0.0271  0.0156  0.2500  -8.2717   0.0000   0.2127
  14.000   1.3016   0.03196   0.02488   0.0296  0.0151  0.2500  -8.6345   0.0000   0.2102
  14.500   1.3118   0.03546   0.02862   0.0311  0.0147  0.2500  -8.9566   0.0000   0.2082
  15.000   1.3164   0.04008   0.03349   0.0312  0.0143  0.2500  -9.2327   0.0000   0.2072
  15.500   1.3148   0.04610   0.03977   0.0297  0.0139  0.2500  -9.4529   0.0000   0.2072
  16.000   1.3059   0.05382   0.04775   0.0264  0.0135  0.2500  -9.6002   0.0000   0.2084
  16.500   1.2869   0.06365   0.05785   0.0216  0.0133  0.2500  -9.6425   0.0000   0.2107
  17.000   1.2551   0.07590   0.07037   0.0153  0.0131  0.2500  -9.5446   0.0000   0.2141
  17.500   1.2131   0.09047   0.08520   0.0077  0.0130  0.2500  -9.3130   0.0000   0.2188
  18.000   1.1631   0.10704   0.10204  -0.0009  0.0130  0.2500  -8.9517   0.0000   0.2250
  18.500   1.1119   0.12482   0.12006  -0.0103  0.0129  0.2500  -8.5080   0.0000   0.2325
  19.000   1.0568   0.14430   0.13978  -0.0208  0.0129  0.2500  -7.9284   0.0000   0.2422
  19.500   0.9761   0.17215   0.16793  -0.0360  0.0127  0.2500  -6.7966   0.0000   0.2594


