xflr5 v6.42

 Calculated polar for: NACA_6412

 1 1 Reynolds number fixed          Mach number fixed         

 xtrf =   0.250 (top)        0.250 (bottom)
 Mach =   0.000     Re =     0.015 e 6     Ncrit =   5.000

  alpha     CL        CD       CDp       Cm    Top Xtr Bot Xtr   Cpmin    Chinge    XCp    
 ------- -------- --------- --------- -------- ------- ------- -------- --------- ---------
 -10.000  -0.1935   0.13791   0.12191  -0.0557  0.2500  0.2500  -1.2727   0.0000  -0.0647
  -9.500  -0.1848   0.13243   0.11651  -0.0568  0.2500  0.2500  -1.2735   0.0000  -0.0842
  -9.000  -0.1771   0.12704   0.11117  -0.0578  0.2500  0.2500  -1.2844   0.0000  -0.1024
  -8.500  -0.1709   0.12177   0.10602  -0.0585  0.2500  0.2500  -1.3081   0.0000  -0.1177
  -8.000  -0.1666   0.11666   0.10105  -0.0589  0.2500  0.2500  -1.3323   0.0000  -0.1274
  -7.500  -0.1638   0.11151   0.09602  -0.0600  0.2500  0.2350  -1.3752   0.0000  -0.1390
  -7.000  -0.1694   0.10698   0.09166  -0.0642  0.2500  0.2141  -1.4711   0.0000  -0.1488
  -6.500  -0.1558   0.10044   0.08520  -0.0647  0.2500  0.2095  -1.4735   0.0000  -0.1851
  -6.000  -0.1460   0.09442   0.07927  -0.0663  0.2500  0.2032  -1.4952   0.0000  -0.2231
  -5.500  -0.1367   0.08838   0.07328  -0.0696  0.2500  0.1957  -1.5399   0.0000  -0.2775
  -5.000  -0.1207   0.08231   0.06717  -0.0729  0.2500  0.1946  -1.5584   0.0000  -0.3722
  -4.500  -0.0981   0.07659   0.06130  -0.0748  0.2500  0.2015  -1.5307   0.0000  -0.5332
  -4.000  -0.0665   0.07047   0.05488  -0.0795  0.2500  0.2059  -1.5130   0.0000  -0.9721
  -3.500  -0.0235   0.06436   0.04816  -0.0857  0.2500  0.2122  -1.5117   0.0000  -3.4663
  -3.000   0.0200   0.05943   0.04281  -0.0883  0.2500  0.2291  -1.4422   0.0000   4.7441
  -2.500   0.0779   0.05463   0.03704  -0.0938  0.2500  0.2468  -1.3707   0.0000   1.4673
  -2.000   0.1411   0.05030   0.03156  -0.0981  0.2500  0.2500  -1.2803   0.0000   0.9515
  -1.500   0.2050   0.04697   0.02697  -0.1011  0.2500  0.2500  -1.1957   0.0000   0.7463
  -1.000   0.2620   0.04479   0.02379  -0.1020  0.2500  0.2500  -1.0849   0.0000   0.6404
  -0.500   0.3119   0.04364   0.02203  -0.1016  0.2500  0.2500  -0.9486   0.0000   0.5754
   0.000   0.3573   0.04342   0.02133  -0.1007  0.2500  0.2500  -0.8161   0.0000   0.5305
   0.500   0.4002   0.04381   0.02128  -0.0996  0.2500  0.2500  -0.8043   0.0000   0.4967
   1.000   0.4416   0.04462   0.02175  -0.0985  0.2500  0.2500  -0.8322   0.0000   0.4701
   1.500   0.4815   0.04573   0.02260  -0.0975  0.2500  0.2500  -0.8606   0.0000   0.4487
   2.000   0.5193   0.04714   0.02384  -0.0964  0.2500  0.2500  -0.8875   0.0000   0.4312
   2.500   0.5548   0.04888   0.02550  -0.0954  0.2500  0.2500  -0.9118   0.0000   0.4168
   3.000   0.5877   0.05095   0.02756  -0.0943  0.2500  0.2500  -0.9360   0.0000   0.4047
   3.500   0.6180   0.05341   0.03006  -0.0933  0.2500  0.2500  -0.9564   0.0000   0.3946
   4.000   0.6452   0.05632   0.03306  -0.0924  0.2500  0.2500  -0.9760   0.0000   0.3862
   4.500   0.6691   0.05972   0.03660  -0.0916  0.2500  0.2500  -0.9903   0.0000   0.3793
   5.000   0.6907   0.06352   0.04057  -0.0909  0.2500  0.2500  -1.0038   0.0000   0.3735
   5.500   0.7105   0.06757   0.04478  -0.0903  0.2500  0.2500  -1.0149   0.0000   0.3683
   6.000   0.7293   0.07175   0.04914  -0.0896  0.2500  0.2500  -1.0286   0.0000   0.3635
   6.500   0.7478   0.07600   0.05358  -0.0890  0.2500  0.2500  -1.0419   0.0000   0.3590
   7.000   0.7658   0.08030   0.05814  -0.0884  0.2500  0.2500  -1.0582   0.0000   0.3548
   7.500   0.7842   0.08463   0.06270  -0.0878  0.2500  0.2500  -1.0773   0.0000   0.3507
   8.000   0.8026   0.08900   0.06731  -0.0874  0.2500  0.2500  -1.0993   0.0000   0.3469
   8.500   0.8215   0.09338   0.07195  -0.0870  0.2500  0.2500  -1.1273   0.0000   0.3432
   9.000   0.8410   0.09776   0.07671  -0.0867  0.2500  0.2500  -1.1636   0.0000   0.3397
   9.500   0.8611   0.10214   0.08141  -0.0864  0.2500  0.2500  -1.2135   0.0000   0.3363
  10.000   0.8817   0.10654   0.08615  -0.0863  0.2500  0.2500  -1.2887   0.0000   0.3330
  10.500   0.9027   0.11097   0.09096  -0.0862  0.2500  0.2500  -1.3808   0.0000   0.3298
  11.000   0.9240   0.11546   0.09594  -0.0862  0.2500  0.2500  -1.4838   0.0000   0.3269
  11.500   0.9456   0.11998   0.10091  -0.0863  0.2500  0.2500  -1.5971   0.0000   0.3240
  12.000   0.9668   0.12462   0.10602  -0.0865  0.2500  0.2500  -1.7197   0.0000   0.3214
  12.500   0.9873   0.12950   0.11150  -0.0868  0.2500  0.2500  -1.8471   0.0000   0.3190
  13.000   1.0073   0.13479   0.11734  -0.0875  0.2500  0.2500  -1.9773   0.0000   0.3171
  13.500   1.0260   0.14070   0.12381  -0.0884  0.2500  0.2500  -2.0984   0.0000   0.3156
  14.000   1.0430   0.14750   0.13118  -0.0899  0.2500  0.2500  -2.2157   0.0000   0.3149
  14.500   1.0572   0.15555   0.13988  -0.0921  0.2500  0.2500  -2.3103   0.0000   0.3150
  15.000   1.0680   0.16523   0.15009  -0.0951  0.2500  0.2500  -2.3686   0.0000   0.3162
  15.500   1.0741   0.17680   0.16211  -0.0991  0.2500  0.2500  -2.3784   0.0000   0.3189
  16.000   1.0760   0.18961   0.17525  -0.1041  0.2500  0.2500  -2.3482   0.0000   0.3227
  16.500   1.0757   0.20239   0.18828  -0.1094  0.2500  0.2500  -2.2996   0.0000   0.3271
  17.000   1.0756   0.21433   0.20039  -0.1147  0.2500  0.2500  -2.2455   0.0000   0.3314
  17.500   1.0900   0.22479   0.21107  -0.1178  0.2434  0.2500  -2.2681   0.0000   0.3320
  18.000   1.0902   0.23206   0.21845  -0.1220  0.2263  0.2500  -2.2390   0.0000   0.3349
  18.500   1.0990   0.24069   0.22718  -0.1257  0.2153  0.2500  -2.2336   0.0000   0.3364
  19.000   1.1113   0.24861   0.23535  -0.1288  0.2014  0.2500  -2.2466   0.0000   0.3369
  19.500   1.1191   0.25696   0.24376  -0.1331  0.1925  0.2500  -2.2400   0.0000   0.3390
  20.000   1.1266   0.26577   0.25266  -0.1383  0.1889  0.2500  -2.2120   0.0000   0.3418


