xflr5 v6.42

 Calculated polar for: NACA_6412

 1 1 Reynolds number fixed          Mach number fixed         

 xtrf =   0.250 (top)        0.250 (bottom)
 Mach =   0.000     Re =     0.150 e 6     Ncrit =   5.000

  alpha     CL        CD       CDp       Cm    Top Xtr Bot Xtr   Cpmin    Chinge    XCp    
 ------- -------- --------- --------- -------- ------- ------- -------- --------- ---------
 -10.000  -0.1452   0.10761   0.09978  -0.0750  0.2500  0.0310  -1.7146   0.0000  -0.3053
  -9.500  -0.1341   0.10114   0.09332  -0.0776  0.2500  0.0298  -1.7553   0.0000  -0.3681
  -9.000  -0.1250   0.09441   0.08661  -0.0806  0.2500  0.0292  -1.8260   0.0000  -0.4353
  -8.500  -0.1172   0.08756   0.07979  -0.0841  0.2500  0.0292  -1.9054   0.0000  -0.5080
  -8.000  -0.1115   0.08044   0.07272  -0.0883  0.2500  0.0306  -2.0106   0.0000  -0.5819
  -7.500  -0.1128   0.07153   0.06388  -0.0955  0.2500  0.0321  -2.2847   0.0000  -0.6333
  -7.000  -0.0989   0.06027   0.05260  -0.1079  0.2500  0.0322  -2.5765   0.0000  -0.8805
  -6.500  -0.0802   0.03186   0.02278  -0.1353  0.2500  0.0337  -3.6215   0.0000  -1.4873
  -6.000  -0.0319   0.02915   0.01967  -0.1365  0.2500  0.0362  -3.3261   0.0000  -4.1504
  -5.500   0.0188   0.02581   0.01553  -0.1376  0.2500  0.0407  -3.0950   0.0000   7.7472
  -5.000   0.0707   0.02296   0.01206  -0.1380  0.2500  0.0438  -2.8427   0.0000   2.2471
  -4.500   0.1237   0.02173   0.01059  -0.1380  0.2500  0.0483  -2.5297   0.0000   1.3878
  -4.000   0.1775   0.02053   0.00900  -0.1379  0.2500  0.0552  -2.2713   0.0000   1.0403
  -3.500   0.2310   0.01959   0.00793  -0.1378  0.2500  0.0622  -1.9995   0.0000   0.8549
  -3.000   0.2849   0.01884   0.00699  -0.1375  0.2500  0.0728  -1.7333   0.0000   0.7384
  -2.500   0.3388   0.01835   0.00638  -0.1373  0.2500  0.0855  -1.4812   0.0000   0.6588
  -2.000   0.3926   0.01788   0.00587  -0.1370  0.2500  0.1030  -1.2593   0.0000   0.6011
  -1.500   0.4462   0.01757   0.00554  -0.1367  0.2500  0.1266  -1.0414   0.0000   0.5573
  -1.000   0.4997   0.01736   0.00532  -0.1364  0.2500  0.1571  -0.8760   0.0000   0.5228
  -0.500   0.5529   0.01720   0.00522  -0.1360  0.2500  0.1955  -0.9184   0.0000   0.4951
   0.000   0.6057   0.01710   0.00523  -0.1356  0.2500  0.2477  -0.9607   0.0000   0.4722
   0.500   0.6585   0.01719   0.00517  -0.1350  0.2500  0.2500  -1.0052   0.0000   0.4527
   1.000   0.7107   0.01737   0.00523  -0.1344  0.2500  0.2500  -1.0511   0.0000   0.4360
   1.500   0.7625   0.01759   0.00536  -0.1337  0.2500  0.2500  -1.0970   0.0000   0.4216
   2.000   0.8137   0.01785   0.00556  -0.1329  0.2500  0.2500  -1.1428   0.0000   0.4090
   2.500   0.8642   0.01813   0.00584  -0.1320  0.2500  0.2500  -1.1884   0.0000   0.3978
   3.000   0.9141   0.01845   0.00615  -0.1311  0.2500  0.2500  -1.2339   0.0000   0.3878
   3.500   0.9633   0.01879   0.00652  -0.1300  0.2500  0.2500  -1.2799   0.0000   0.3788
   4.000   1.0119   0.01917   0.00697  -0.1289  0.2500  0.2500  -1.3283   0.0000   0.3705
   4.500   1.0595   0.01959   0.00746  -0.1276  0.2500  0.2500  -1.3782   0.0000   0.3630
   5.000   1.1059   0.02003   0.00800  -0.1262  0.2500  0.2500  -1.4290   0.0000   0.3560
   5.500   1.1501   0.02051   0.00863  -0.1243  0.2500  0.2500  -1.4817   0.0000   0.3493
   6.000   1.1927   0.02103   0.00929  -0.1223  0.2500  0.2500  -1.5376   0.0000   0.3430
   6.500   1.2355   0.02163   0.01008  -0.1203  0.2500  0.2500  -1.5978   0.0000   0.3372
   7.000   1.2775   0.02228   0.01094  -0.1184  0.2500  0.2500  -1.7446   0.0000   0.3318
   7.500   1.3185   0.02301   0.01188  -0.1164  0.2500  0.2500  -1.9390   0.0000   0.3266
   8.000   1.3582   0.02381   0.01295  -0.1142  0.2500  0.2500  -2.1563   0.0000   0.3217
   8.500   1.3967   0.02469   0.01410  -0.1120  0.2500  0.2500  -2.3868   0.0000   0.3170
   9.000   1.4335   0.02567   0.01537  -0.1096  0.2500  0.2500  -2.6359   0.0000   0.3125
   9.500   1.4691   0.02675   0.01681  -0.1072  0.2500  0.2500  -2.8981   0.0000   0.3081
  10.000   1.5029   0.02797   0.01837  -0.1047  0.2500  0.2500  -3.1693   0.0000   0.3039
  10.500   1.5351   0.02933   0.02011  -0.1021  0.2500  0.2500  -3.4632   0.0000   0.2999
  11.000   1.5656   0.03084   0.02207  -0.0994  0.2500  0.2500  -3.7580   0.0000   0.2960
  11.500   1.5681   0.03426   0.02554  -0.0943  0.2194  0.2500  -3.9575   0.0000   0.2917
  12.000   1.5494   0.03979   0.03089  -0.0885  0.1698  0.2500  -4.0759   0.0000   0.2877
  12.500   1.5273   0.04637   0.03734  -0.0840  0.1294  0.2500  -4.1751   0.0000   0.2845
  13.000   1.5095   0.05326   0.04422  -0.0809  0.1004  0.2500  -4.2844   0.0000   0.2820
  13.500   1.4936   0.06052   0.05153  -0.0788  0.0807  0.2500  -4.3954   0.0000   0.2802
  14.000   1.4798   0.06805   0.05920  -0.0776  0.0675  0.2500  -4.5243   0.0000   0.2788
  14.500   1.4651   0.07598   0.06724  -0.0770  0.0581  0.2500  -4.6459   0.0000   0.2778
  15.000   1.4566   0.08337   0.07487  -0.0767  0.0520  0.2500  -4.7913   0.0000   0.2769
  15.500   1.4455   0.09133   0.08299  -0.0770  0.0467  0.2500  -4.9217   0.0000   0.2764
  16.000   1.4338   0.09947   0.09129  -0.0776  0.0424  0.2500  -5.0415   0.0000   0.2761
  16.500   1.4308   0.10639   0.09845  -0.0782  0.0385  0.2500  -5.2070   0.0000   0.2755
  17.000   1.4251   0.11385   0.10609  -0.0793  0.0354  0.2500  -5.3554   0.0000   0.2754
  17.500   1.4178   0.12140   0.11376  -0.0806  0.0328  0.2500  -5.4845   0.0000   0.2754
  18.000   1.4210   0.12750   0.12012  -0.0817  0.0308  0.2500  -5.6677   0.0000   0.2749
  18.500   1.4220   0.13409   0.12695  -0.0833  0.0285  0.2500  -5.8381   0.0000   0.2748
  19.000   1.4211   0.14108   0.13412  -0.0857  0.0265  0.2500  -6.0102   0.0000   0.2752
  19.500   1.4205   0.14773   0.14086  -0.0879  0.0247  0.2500  -6.1971   0.0000   0.2756
  20.000   1.4225   0.15423   0.14764  -0.0903  0.0236  0.2500  -6.3767   0.0000   0.2759


