xflr5 v6.42

 Calculated polar for: NACA_0012

 1 1 Reynolds number fixed          Mach number fixed         

 xtrf =   0.250 (top)        0.250 (bottom)
 Mach =   0.000     Re =     0.075 e 6     Ncrit =   5.000

  alpha     CL        CD       CDp       Cm    Top Xtr Bot Xtr   Cpmin    Chinge    XCp    
 ------- -------- --------- --------- -------- ------- ------- -------- --------- ---------
 -10.000  -0.9510   0.04110   0.02990  -0.0225  0.2500  0.0602  -4.3715   0.0000   0.2156
  -9.500  -0.9200   0.03733   0.02587  -0.0204  0.2500  0.0652  -4.1237   0.0000   0.2176
  -9.000  -0.8842   0.03454   0.02279  -0.0183  0.2500  0.0718  -3.8479   0.0000   0.2196
  -8.500  -0.8463   0.03187   0.01979  -0.0163  0.2500  0.0814  -3.5798   0.0000   0.2215
  -8.000  -0.8064   0.02967   0.01739  -0.0144  0.2500  0.0926  -3.3251   0.0000   0.2235
  -7.500  -0.7664   0.02762   0.01525  -0.0125  0.2500  0.1090  -3.0659   0.0000   0.2255
  -7.000  -0.7249   0.02576   0.01328  -0.0106  0.2500  0.1309  -2.8061   0.0000   0.2277
  -6.500  -0.6817   0.02417   0.01162  -0.0088  0.2500  0.1636  -2.5416   0.0000   0.2297
  -6.000  -0.6385   0.02267   0.01028  -0.0072  0.2500  0.2098  -2.3038   0.0000   0.2319
  -5.500  -0.5921   0.02150   0.00905  -0.0057  0.2500  0.2500  -2.0657   0.0000   0.2340
  -5.000  -0.5399   0.02088   0.00799  -0.0047  0.2500  0.2500  -1.8211   0.0000   0.2351
  -4.500  -0.4872   0.02044   0.00712  -0.0040  0.2500  0.2500  -1.6033   0.0000   0.2359
  -4.000  -0.4341   0.02008   0.00643  -0.0033  0.2500  0.2500  -1.3928   0.0000   0.2367
  -3.500  -0.3806   0.01978   0.00585  -0.0028  0.2500  0.2500  -1.2075   0.0000   0.2374
  -3.000  -0.3268   0.01954   0.00533  -0.0023  0.2500  0.2500  -1.0390   0.0000   0.2380
  -2.500  -0.2729   0.01935   0.00494  -0.0018  0.2500  0.2500  -0.8899   0.0000   0.2385
  -2.000  -0.2187   0.01919   0.00460  -0.0013  0.2500  0.2500  -0.7609   0.0000   0.2391
  -1.500  -0.1643   0.01907   0.00435  -0.0009  0.2500  0.2500  -0.6511   0.0000   0.2396
  -1.000  -0.1099   0.01899   0.00417  -0.0006  0.2500  0.2500  -0.5586   0.0000   0.2404
  -0.500  -0.0550   0.01894   0.00407  -0.0003  0.2500  0.2500  -0.4823   0.0000   0.2405
   0.000   0.0000   0.01893   0.00404  -0.0000  0.2500  0.2500  -0.4177   0.0000   0.3715
   0.500   0.0550   0.01894   0.00407   0.0003  0.2500  0.2500  -0.4823   0.0000   0.2405
   1.000   0.1099   0.01899   0.00417   0.0006  0.2500  0.2500  -0.5586   0.0000   0.2404
   1.500   0.1643   0.01907   0.00435   0.0009  0.2500  0.2500  -0.6511   0.0000   0.2396
   2.000   0.2187   0.01919   0.00460   0.0013  0.2500  0.2500  -0.7609   0.0000   0.2391
   2.500   0.2729   0.01935   0.00494   0.0018  0.2500  0.2500  -0.8899   0.0000   0.2385
   3.000   0.3269   0.01954   0.00533   0.0022  0.2500  0.2500  -1.0391   0.0000   0.2380
   3.500   0.3806   0.01978   0.00584   0.0028  0.2500  0.2500  -1.2075   0.0000   0.2374
   4.000   0.4341   0.02008   0.00643   0.0033  0.2500  0.2500  -1.3928   0.0000   0.2367
   4.500   0.4872   0.02044   0.00712   0.0040  0.2500  0.2500  -1.6034   0.0000   0.2360
   5.000   0.5400   0.02088   0.00799   0.0047  0.2500  0.2500  -1.8212   0.0000   0.2351
   5.500   0.5922   0.02150   0.00905   0.0056  0.2500  0.2500  -2.0658   0.0000   0.2340
   6.000   0.6386   0.02267   0.01028   0.0071  0.2097  0.2500  -2.3040   0.0000   0.2319
   6.500   0.6818   0.02417   0.01162   0.0088  0.1636  0.2500  -2.5418   0.0000   0.2298
   7.000   0.7250   0.02576   0.01328   0.0105  0.1309  0.2500  -2.8065   0.0000   0.2277
   7.500   0.7666   0.02762   0.01525   0.0124  0.1090  0.2500  -3.0663   0.0000   0.2256
   8.000   0.8066   0.02967   0.01739   0.0144  0.0926  0.2500  -3.3257   0.0000   0.2235
   8.500   0.8465   0.03188   0.01979   0.0163  0.0814  0.2500  -3.5805   0.0000   0.2216
   9.000   0.8845   0.03454   0.02280   0.0183  0.0718  0.2500  -3.8488   0.0000   0.2197
   9.500   0.9204   0.03734   0.02587   0.0203  0.0652  0.2500  -4.1249   0.0000   0.2177
  10.000   0.9514   0.04111   0.02991   0.0224  0.0602  0.2500  -4.3727   0.0000   0.2156
  10.500   0.9727   0.04490   0.03435   0.0253  0.0550  0.2500  -4.5693   0.0000   0.2126
  11.000   0.9863   0.04917   0.03912   0.0283  0.0517  0.2500  -4.7390   0.0000   0.2093
  11.500   0.9873   0.05381   0.04411   0.0318  0.0498  0.2500  -4.8609   0.0000   0.2051
  12.000   0.9776   0.05985   0.05049   0.0340  0.0484  0.2500  -4.9191   0.0000   0.2018
  12.500   0.9465   0.06868   0.05971   0.0332  0.0477  0.2500  -4.8341   0.0000   0.2006
  13.000   0.8940   0.08208   0.07357   0.0258  0.0478  0.2500  -4.5738   0.0000   0.2058
  13.500   0.7184   0.13240   0.12415  -0.0073  0.0509  0.2500  -2.8747   0.0000   0.2452
  14.000   0.7081   0.14478   0.13651  -0.0126  0.0502  0.2500  -2.6831   0.0000   0.2525
  15.000   0.7071   0.16468   0.15637  -0.0212  0.0460  0.2500  -2.4984   0.0000   0.2637
  15.500   0.7076   0.17554   0.16724  -0.0262  0.0456  0.2500  -2.3655   0.0000   0.2703
  16.000   0.7133   0.18517   0.17689  -0.0304  0.0458  0.2500  -2.2831   0.0000   0.2755
  16.500   0.7225   0.19400   0.18575  -0.0340  0.0464  0.2500  -2.2390   0.0000   0.2794
  17.000   0.7350   0.20246   0.19424  -0.0370  0.0470  0.2500  -2.2286   0.0000   0.2821
  17.500   0.7393   0.21149   0.20328  -0.0428  0.0462  0.2500  -2.0889   0.0000   0.2891
  18.000   0.7505   0.21976   0.21158  -0.0469  0.0462  0.2500  -2.0333   0.0000   0.2931
  18.500   0.7779   0.23580   0.22779  -0.0468  0.0613  0.2500  -2.0225   0.0000   0.2906
  19.000   0.7910   0.24470   0.23672  -0.0508  0.0613  0.2500  -2.0003   0.0000   0.2940
  19.500   0.8015   0.25220   0.24425  -0.0556  0.0611  0.2500  -1.9655   0.0000   0.2984
  20.000   0.8088   0.25745   0.24950  -0.0615  0.0608  0.2500  -1.8953   0.0000   0.3042


