xflr5 v6.42

 Calculated polar for: NACA_0012

 1 1 Reynolds number fixed          Mach number fixed         

 xtrf =   0.250 (top)        0.250 (bottom)
 Mach =   0.000     Re =     0.200 e 6     Ncrit =   5.000

  alpha     CL        CD       CDp       Cm    Top Xtr Bot Xtr   Cpmin    Chinge    XCp    
 ------- -------- --------- --------- -------- ------- ------- -------- --------- ---------
 -10.000  -0.9985   0.02674   0.01707  -0.0171  0.2500  0.0363  -4.9569   0.0000   0.2219
  -9.500  -0.9641   0.02474   0.01492  -0.0146  0.2500  0.0397  -4.6279   0.0000   0.2245
  -9.000  -0.9237   0.02330   0.01330  -0.0128  0.2500  0.0438  -4.2730   0.0000   0.2264
  -8.500  -0.8809   0.02199   0.01178  -0.0111  0.2500  0.0489  -3.9202   0.0000   0.2282
  -8.000  -0.8376   0.02069   0.01039  -0.0095  0.2500  0.0567  -3.6035   0.0000   0.2299
  -7.500  -0.7920   0.01956   0.00912  -0.0081  0.2500  0.0653  -3.2944   0.0000   0.2315
  -7.000  -0.7444   0.01863   0.00806  -0.0070  0.2500  0.0780  -2.9809   0.0000   0.2329
  -6.500  -0.6967   0.01765   0.00708  -0.0059  0.2500  0.0964  -2.6777   0.0000   0.2343
  -6.000  -0.6481   0.01675   0.00623  -0.0049  0.2500  0.1236  -2.3958   0.0000   0.2356
  -5.500  -0.5987   0.01593   0.00547  -0.0040  0.2500  0.1608  -2.1347   0.0000   0.2368
  -5.000  -0.5489   0.01516   0.00484  -0.0032  0.2500  0.2085  -1.8809   0.0000   0.2381
  -4.500  -0.4977   0.01455   0.00428  -0.0024  0.2500  0.2500  -1.6511   0.0000   0.2394
  -4.000  -0.4430   0.01433   0.00384  -0.0020  0.2500  0.2500  -1.4304   0.0000   0.2399
  -3.500  -0.3881   0.01415   0.00347  -0.0017  0.2500  0.2500  -1.2354   0.0000   0.2404
  -3.000  -0.3330   0.01401   0.00315  -0.0014  0.2500  0.2500  -1.0579   0.0000   0.2408
  -2.500  -0.2777   0.01389   0.00290  -0.0011  0.2500  0.2500  -0.9022   0.0000   0.2411
  -2.000  -0.2223   0.01380   0.00269  -0.0009  0.2500  0.2500  -0.7686   0.0000   0.2414
  -1.500  -0.1668   0.01373   0.00254  -0.0006  0.2500  0.2500  -0.6555   0.0000   0.2416
  -1.000  -0.1112   0.01368   0.00243  -0.0004  0.2500  0.2500  -0.5606   0.0000   0.2417
  -0.500  -0.0556   0.01365   0.00236  -0.0002  0.2500  0.2500  -0.4824   0.0000   0.2418
   0.000  -0.0000   0.01364   0.00234   0.0000  0.2500  0.2500  -0.4169   0.0000   0.4481
   0.500   0.0556   0.01365   0.00236   0.0002  0.2500  0.2500  -0.4824   0.0000   0.2418
   1.000   0.1112   0.01368   0.00243   0.0004  0.2500  0.2500  -0.5606   0.0000   0.2417
   1.500   0.1668   0.01373   0.00254   0.0006  0.2500  0.2500  -0.6555   0.0000   0.2416
   2.000   0.2223   0.01380   0.00269   0.0009  0.2500  0.2500  -0.7686   0.0000   0.2414
   2.500   0.2777   0.01389   0.00290   0.0011  0.2500  0.2500  -0.9022   0.0000   0.2411
   3.000   0.3330   0.01401   0.00315   0.0014  0.2500  0.2500  -1.0579   0.0000   0.2408
   3.500   0.3881   0.01415   0.00347   0.0017  0.2500  0.2500  -1.2354   0.0000   0.2404
   4.000   0.4431   0.01433   0.00384   0.0020  0.2500  0.2500  -1.4304   0.0000   0.2399
   4.500   0.4978   0.01455   0.00428   0.0024  0.2500  0.2500  -1.6512   0.0000   0.2394
   5.000   0.5489   0.01516   0.00484   0.0031  0.2085  0.2500  -1.8810   0.0000   0.2381
   5.500   0.5988   0.01593   0.00547   0.0040  0.1608  0.2500  -2.1349   0.0000   0.2369
   6.000   0.6482   0.01675   0.00623   0.0049  0.1236  0.2500  -2.3960   0.0000   0.2356
   6.500   0.6968   0.01765   0.00708   0.0059  0.0964  0.2500  -2.6780   0.0000   0.2343
   7.000   0.7445   0.01863   0.00806   0.0070  0.0780  0.2500  -2.9812   0.0000   0.2329
   7.500   0.7922   0.01956   0.00912   0.0081  0.0652  0.2500  -3.2949   0.0000   0.2316
   8.000   0.8378   0.02069   0.01040   0.0095  0.0566  0.2500  -3.6041   0.0000   0.2300
   8.500   0.8811   0.02199   0.01178   0.0110  0.0489  0.2500  -3.9209   0.0000   0.2282
   9.000   0.9239   0.02330   0.01330   0.0127  0.0438  0.2500  -4.2739   0.0000   0.2264
   9.500   0.9644   0.02474   0.01492   0.0146  0.0397  0.2500  -4.6291   0.0000   0.2245
  10.000   0.9989   0.02674   0.01707   0.0170  0.0363  0.2500  -4.9584   0.0000   0.2220
  10.500   1.0353   0.02838   0.01900   0.0192  0.0333  0.2500  -5.3081   0.0000   0.2199
  11.000   1.0667   0.03022   0.02105   0.0217  0.0308  0.2500  -5.6479   0.0000   0.2173
  11.500   1.0872   0.03249   0.02350   0.0254  0.0291  0.2500  -5.9405   0.0000   0.2136
  12.000   1.1023   0.03560   0.02689   0.0290  0.0278  0.2500  -6.1837   0.0000   0.2100
  12.500   1.1153   0.03894   0.03061   0.0317  0.0267  0.2500  -6.4116   0.0000   0.2070
  13.000   1.1212   0.04305   0.03509   0.0336  0.0255  0.2500  -6.6298   0.0000   0.2046
  13.500   1.1212   0.04807   0.04046   0.0340  0.0245  0.2500  -6.8176   0.0000   0.2034
  14.000   1.1162   0.05427   0.04696   0.0324  0.0236  0.2500  -6.9676   0.0000   0.2036
  14.500   1.1051   0.06203   0.05501   0.0290  0.0229  0.2500  -7.0597   0.0000   0.2054
  15.000   1.0851   0.07195   0.06521   0.0236  0.0224  0.2500  -7.0576   0.0000   0.2088
  15.500   1.0527   0.08484   0.07842   0.0161  0.0222  0.2500  -6.9110   0.0000   0.2142
  16.000   0.9944   0.10418   0.09817   0.0044  0.0222  0.2500  -6.4478   0.0000   0.2242
  16.500   0.7700   0.17159   0.16588  -0.0306  0.0217  0.2500  -3.4146   0.0000   0.2704
  17.000   0.7605   0.18594   0.18021  -0.0369  0.0209  0.2500  -3.0458   0.0000   0.2790
  17.500   0.7590   0.19880   0.19307  -0.0427  0.0203  0.2500  -2.7275   0.0000   0.2865
  18.000   0.7645   0.20933   0.20361  -0.0477  0.0201  0.2500  -2.5318   0.0000   0.2922
  18.500   0.7720   0.21931   0.21361  -0.0528  0.0193  0.2500  -2.3575   0.0000   0.2977
  19.000   0.7838   0.22745   0.22178  -0.0572  0.0179  0.2500  -2.2937   0.0000   0.3016
  19.500   0.7961   0.23572   0.23008  -0.0616  0.0177  0.2500  -2.2516   0.0000   0.3053
  20.000   0.8087   0.24411   0.23849  -0.0660  0.0178  0.2500  -2.1896   0.0000   0.3089


