xflr5 v6.42

 Calculated polar for: NACA_6412

 1 1 Reynolds number fixed          Mach number fixed         

 xtrf =   0.250 (top)        0.250 (bottom)
 Mach =   0.000     Re =     0.400 e 6     Ncrit =   5.000

  alpha     CL        CD       CDp       Cm    Top Xtr Bot Xtr   Cpmin    Chinge    XCp    
 ------- -------- --------- --------- -------- ------- ------- -------- --------- ---------
  -9.000  -0.3285   0.02688   0.01993  -0.1393  0.2500  0.0180  -6.2706   0.0000  -0.1949
  -8.500  -0.2830   0.02329   0.01571  -0.1408  0.2500  0.0189  -5.9554   0.0000  -0.2701
  -8.000  -0.2340   0.02085   0.01278  -0.1415  0.2500  0.0198  -5.5801   0.0000  -0.3795
  -7.500  -0.1819   0.01961   0.01133  -0.1417  0.2500  0.0213  -5.1235   0.0000  -0.5586
  -7.000  -0.1286   0.01868   0.01018  -0.1419  0.2500  0.0231  -4.6728   0.0000  -0.8913
  -6.500  -0.0750   0.01759   0.00877  -0.1419  0.2500  0.0247  -4.2602   0.0000  -1.7005
  -6.000  -0.0213   0.01650   0.00743  -0.1420  0.2500  0.0265  -3.8603   0.0000  -6.6087
  -5.500   0.0333   0.01584   0.00662  -0.1420  0.2500  0.0288  -3.4465   0.0000   4.6267
  -5.000   0.0882   0.01536   0.00598  -0.1420  0.2500  0.0320  -3.0447   0.0000   1.8958
  -4.500   0.1431   0.01475   0.00525  -0.1420  0.2500  0.0357  -2.7026   0.0000   1.2618
  -4.000   0.1983   0.01438   0.00477  -0.1419  0.2500  0.0400  -2.3777   0.0000   0.9781
  -3.500   0.2535   0.01401   0.00432  -0.1419  0.2500  0.0458  -2.0663   0.0000   0.8179
  -3.000   0.3087   0.01380   0.00404  -0.1418  0.2500  0.0532  -1.7616   0.0000   0.7148
  -2.500   0.3638   0.01355   0.00378  -0.1418  0.2500  0.0636  -1.4958   0.0000   0.6431
  -2.000   0.4189   0.01339   0.00359  -0.1417  0.2500  0.0765  -1.2542   0.0000   0.5902
  -1.500   0.4739   0.01329   0.00348  -0.1415  0.2500  0.0932  -1.0224   0.0000   0.5496
  -1.000   0.5287   0.01322   0.00342  -0.1414  0.2500  0.1144  -0.8835   0.0000   0.5174
  -0.500   0.5833   0.01316   0.00343  -0.1413  0.2500  0.1440  -0.9302   0.0000   0.4913
   0.000   0.6377   0.01314   0.00348  -0.1411  0.2500  0.1801  -0.9770   0.0000   0.4697
   0.500   0.6919   0.01315   0.00358  -0.1409  0.2500  0.2211  -1.0241   0.0000   0.4514
   1.000   0.7458   0.01322   0.00368  -0.1407  0.2500  0.2500  -1.0713   0.0000   0.4356
   1.500   0.7992   0.01339   0.00380  -0.1403  0.2500  0.2500  -1.1185   0.0000   0.4219
   2.000   0.8523   0.01357   0.00396  -0.1398  0.2500  0.2500  -1.1658   0.0000   0.4098
   2.500   0.9048   0.01378   0.00417  -0.1393  0.2500  0.2500  -1.2129   0.0000   0.3991
   3.000   0.9568   0.01400   0.00440  -0.1387  0.2500  0.2500  -1.2633   0.0000   0.3894
   3.500   1.0081   0.01425   0.00467  -0.1380  0.2500  0.2500  -1.3139   0.0000   0.3807
   4.000   1.0589   0.01451   0.00499  -0.1372  0.2500  0.2500  -1.3644   0.0000   0.3728
   4.500   1.1088   0.01479   0.00532  -0.1363  0.2500  0.2500  -1.4154   0.0000   0.3655
   5.000   1.1579   0.01509   0.00572  -0.1352  0.2500  0.2500  -1.4686   0.0000   0.3587
   5.500   1.2057   0.01541   0.00613  -0.1340  0.2500  0.2500  -1.5258   0.0000   0.3524
   6.000   1.2507   0.01575   0.00658  -0.1322  0.2500  0.2500  -1.5852   0.0000   0.3463
   6.500   1.2948   0.01614   0.00711  -0.1303  0.2500  0.2500  -1.6802   0.0000   0.3405
   7.000   1.3397   0.01658   0.00769  -0.1287  0.2500  0.2500  -1.8755   0.0000   0.3352
   7.500   1.3839   0.01706   0.00832  -0.1270  0.2500  0.2500  -2.0989   0.0000   0.3301
   8.000   1.4271   0.01759   0.00905  -0.1252  0.2500  0.2500  -2.3410   0.0000   0.3253
   8.500   1.4695   0.01817   0.00981  -0.1233  0.2500  0.2500  -2.6035   0.0000   0.3207
   9.000   1.5105   0.01882   0.01069  -0.1213  0.2500  0.2500  -2.8836   0.0000   0.3163
   9.500   1.5490   0.01961   0.01169  -0.1190  0.2473  0.2500  -3.1790   0.0000   0.3120
  10.000   1.5567   0.02224   0.01406  -0.1128  0.1911  0.2500  -3.3943   0.0000   0.3067
  10.500   1.5565   0.02563   0.01718  -0.1062  0.1359  0.2500  -3.5837   0.0000   0.3017
  11.000   1.5587   0.02916   0.02059  -0.1008  0.0976  0.2500  -3.7832   0.0000   0.2972
  11.500   1.5609   0.03300   0.02438  -0.0962  0.0729  0.2500  -3.9840   0.0000   0.2931
  12.000   1.5651   0.03699   0.02839  -0.0924  0.0564  0.2500  -4.1937   0.0000   0.2896
  12.500   1.5689   0.04127   0.03276  -0.0892  0.0463  0.2500  -4.4037   0.0000   0.2864
  13.000   1.5739   0.04578   0.03742  -0.0867  0.0397  0.2500  -4.6328   0.0000   0.2835
  13.500   1.5742   0.05105   0.04283  -0.0845  0.0343  0.2500  -4.8527   0.0000   0.2811
  14.000   1.5758   0.05642   0.04837  -0.0828  0.0306  0.2500  -5.0790   0.0000   0.2789
  14.500   1.5734   0.06251   0.05463  -0.0816  0.0274  0.2500  -5.2877   0.0000   0.2771
  15.000   1.5665   0.06940   0.06167  -0.0807  0.0245  0.2500  -5.4700   0.0000   0.2756
  15.500   1.5650   0.07574   0.06822  -0.0802  0.0231  0.2500  -5.6812   0.0000   0.2742
  16.000   1.5602   0.08262   0.07532  -0.0800  0.0215  0.2500  -5.8740   0.0000   0.2731
  16.500   1.5531   0.08997   0.08285  -0.0802  0.0200  0.2500  -6.0535   0.0000   0.2723
  17.000   1.5431   0.09787   0.09092  -0.0809  0.0187  0.2500  -6.2104   0.0000   0.2719
  17.500   1.5335   0.10577   0.09901  -0.0818  0.0177  0.2500  -6.3633   0.0000   0.2716
  18.000   1.5280   0.11313   0.10659  -0.0829  0.0169  0.2500  -6.5409   0.0000   0.2713
  18.500   1.5237   0.12041   0.11407  -0.0843  0.0159  0.2500  -6.7460   0.0000   0.2712
  19.000   1.5188   0.12790   0.12174  -0.0862  0.0150  0.2500  -6.9476   0.0000   0.2713
  19.500   1.5118   0.13587   0.12989  -0.0886  0.0141  0.2500  -7.1284   0.0000   0.2719
  20.000   1.5019   0.14439   0.13857  -0.0916  0.0133  0.2500  -7.2742   0.0000   0.2730


