xflr5 v6.42

 Calculated polar for: NACA_6412

 1 1 Reynolds number fixed          Mach number fixed         

 xtrf =   0.250 (top)        0.250 (bottom)
 Mach =   0.000     Re =     0.007 e 6     Ncrit =   5.000

  alpha     CL        CD       CDp       Cm    Top Xtr Bot Xtr   Cpmin    Chinge    XCp    
 ------- -------- --------- --------- -------- ------- ------- -------- --------- ---------
 -10.000  -0.2366   0.14986   0.12992  -0.0498  0.2500  0.2500  -1.3908   0.0000   0.0170
  -9.500  -0.2319   0.14470   0.12494  -0.0502  0.2500  0.2500  -1.4140   0.0000   0.0119
  -9.000  -0.2290   0.13969   0.12013  -0.0502  0.2500  0.2500  -1.4379   0.0000   0.0101
  -8.500  -0.2285   0.13488   0.11556  -0.0498  0.2500  0.2500  -1.4627   0.0000   0.0127
  -8.000  -0.2296   0.13017   0.11104  -0.0493  0.2500  0.2500  -1.4885   0.0000   0.0174
  -7.500  -0.2304   0.12537   0.10648  -0.0490  0.2500  0.2500  -1.5135   0.0000   0.0209
  -7.000  -0.2328   0.12064   0.10200  -0.0484  0.2500  0.2500  -1.5387   0.0000   0.0270
  -6.500  -0.2365   0.11597   0.09758  -0.0475  0.2500  0.2500  -1.5639   0.0000   0.0354
  -6.000  -0.2398   0.11125   0.09308  -0.0468  0.2500  0.2500  -1.5876   0.0000   0.0423
  -5.500  -0.2405   0.10636   0.08834  -0.0468  0.2500  0.2500  -1.6078   0.0000   0.0443
  -5.000  -0.2370   0.10127   0.08330  -0.0475  0.2500  0.2500  -1.6226   0.0000   0.0392
  -4.500  -0.2271   0.09595   0.07790  -0.0493  0.2500  0.2500  -1.6282   0.0000   0.0229
  -4.000  -0.2085   0.09040   0.07211  -0.0525  0.2500  0.2500  -1.6210   0.0000  -0.0119
  -3.500  -0.1789   0.08471   0.06590  -0.0572  0.2500  0.2500  -1.6153   0.0000  -0.0804
  -3.000  -0.1375   0.07914   0.05961  -0.0633  0.2500  0.2500  -1.5968   0.0000  -0.2223
  -2.500  -0.0856   0.07401   0.05348  -0.0699  0.2500  0.2500  -1.5537   0.0000  -0.5845
  -2.000  -0.0270   0.06969   0.04794  -0.0763  0.2500  0.2500  -1.4836   0.0000  -2.6221
  -1.500   0.0324   0.06642   0.04332  -0.0814  0.2500  0.2500  -1.3868   0.0000   2.7988
  -1.000   0.0883   0.06426   0.03998  -0.0847  0.2500  0.2500  -1.2950   0.0000   1.2189
  -0.500   0.1376   0.06313   0.03792  -0.0864  0.2500  0.2500  -1.1854   0.0000   0.8820
   0.000   0.1807   0.06292   0.03689  -0.0868  0.2500  0.2500  -1.0608   0.0000   0.7323
   0.500   0.2194   0.06348   0.03680  -0.0867  0.2500  0.2500  -0.9365   0.0000   0.6452
   1.000   0.2551   0.06463   0.03734  -0.0863  0.2500  0.2500  -0.8180   0.0000   0.5869
   1.500   0.2888   0.06621   0.03833  -0.0858  0.2500  0.2500  -0.6982   0.0000   0.5445
   2.000   0.3211   0.06810   0.03976  -0.0852  0.2500  0.2500  -0.6799   0.0000   0.5120
   2.500   0.3522   0.07024   0.04151  -0.0846  0.2500  0.2500  -0.6952   0.0000   0.4861
   3.000   0.3825   0.07263   0.04355  -0.0841  0.2500  0.2500  -0.7096   0.0000   0.4650
   3.500   0.4120   0.07519   0.04582  -0.0836  0.2500  0.2500  -0.7258   0.0000   0.4472
   4.000   0.4410   0.07797   0.04837  -0.0832  0.2500  0.2500  -0.7403   0.0000   0.4322
   4.500   0.4694   0.08091   0.05109  -0.0827  0.2500  0.2500  -0.7575   0.0000   0.4192
   5.000   0.4976   0.08402   0.05403  -0.0824  0.2500  0.2500  -0.7739   0.0000   0.4079
   5.500   0.5257   0.08728   0.05714  -0.0822  0.2500  0.2500  -0.7928   0.0000   0.3980
   6.000   0.5537   0.09069   0.06045  -0.0821  0.2500  0.2500  -0.8121   0.0000   0.3893
   6.500   0.5814   0.09419   0.06394  -0.0821  0.2500  0.2500  -0.8335   0.0000   0.3816
   7.000   0.6089   0.09778   0.06754  -0.0821  0.2500  0.2500  -0.8562   0.0000   0.3746
   7.500   0.6361   0.10146   0.07129  -0.0822  0.2500  0.2500  -0.8817   0.0000   0.3683
   8.000   0.6631   0.10523   0.07526  -0.0823  0.2500  0.2500  -0.9084   0.0000   0.3625
   8.500   0.6897   0.10909   0.07928  -0.0825  0.2500  0.2500  -0.9404   0.0000   0.3573
   9.000   0.7161   0.11301   0.08341  -0.0827  0.2500  0.2500  -0.9762   0.0000   0.3525
   9.500   0.7422   0.11703   0.08770  -0.0831  0.2500  0.2500  -1.0177   0.0000   0.3482
  10.000   0.7682   0.12114   0.09224  -0.0835  0.2500  0.2500  -1.0683   0.0000   0.3442
  10.500   0.7941   0.12538   0.09684  -0.0840  0.2500  0.2500  -1.1341   0.0000   0.3405
  11.000   0.8196   0.12974   0.10161  -0.0845  0.2500  0.2500  -1.2136   0.0000   0.3372
  11.500   0.8449   0.13419   0.10653  -0.0852  0.2500  0.2500  -1.3068   0.0000   0.3340
  12.000   0.8697   0.13876   0.11173  -0.0859  0.2500  0.2500  -1.4083   0.0000   0.3312
  12.500   0.8939   0.14355   0.11708  -0.0868  0.2500  0.2500  -1.5150   0.0000   0.3287
  13.000   0.9175   0.14865   0.12279  -0.0878  0.2500  0.2500  -1.6295   0.0000   0.3265
  13.500   0.9404   0.15418   0.12907  -0.0892  0.2500  0.2500  -1.7422   0.0000   0.3248
  14.000   0.9622   0.16025   0.13582  -0.0908  0.2500  0.2500  -1.8575   0.0000   0.3235
  14.500   0.9830   0.16701   0.14326  -0.0928  0.2500  0.2500  -1.9617   0.0000   0.3227
  15.000   1.0022   0.17459   0.15152  -0.0953  0.2500  0.2500  -2.0568   0.0000   0.3225
  15.500   1.0198   0.18310   0.16068  -0.0982  0.2500  0.2500  -2.1404   0.0000   0.3230
  16.000   1.0356   0.19258   0.17087  -0.1016  0.2500  0.2500  -2.2014   0.0000   0.3240
  16.500   1.0490   0.20291   0.18173  -0.1055  0.2500  0.2500  -2.2356   0.0000   0.3258
  17.000   1.0599   0.21368   0.19294  -0.1098  0.2500  0.2500  -2.2481   0.0000   0.3281
  17.500   1.0692   0.22449   0.20411  -0.1144  0.2500  0.2500  -2.2515   0.0000   0.3307
  18.000   1.0780   0.23512   0.21504  -0.1191  0.2500  0.2500  -2.2437   0.0000   0.3334
  18.500   1.0869   0.24547   0.22565  -0.1239  0.2500  0.2500  -2.2295   0.0000   0.3361
  19.000   1.0963   0.25551   0.23592  -0.1287  0.2500  0.2500  -2.2116   0.0000   0.3386
  19.500   1.1062   0.26526   0.24598  -0.1334  0.2500  0.2500  -2.1916   0.0000   0.3409
  20.000   1.1167   0.27473   0.25565  -0.1382  0.2500  0.2500  -2.1731   0.0000   0.3430


