xflr5 v6.42

 Calculated polar for: NACA_0012

 1 1 Reynolds number fixed          Mach number fixed         

 xtrf =   0.250 (top)        0.250 (bottom)
 Mach =   0.000     Re =     3.000 e 6     Ncrit =   5.000

  alpha     CL        CD       CDp       Cm    Top Xtr Bot Xtr   Cpmin    Chinge    XCp    
 ------- -------- --------- --------- -------- ------- ------- -------- --------- ---------
 -10.000  -1.1043   0.01274   0.00595  -0.0024  0.2500  0.0149  -5.7411   0.0000   0.2369
  -9.500  -1.0524   0.01229   0.00546  -0.0018  0.2500  0.0156  -5.2681   0.0000   0.2379
  -9.000  -0.9999   0.01185   0.00498  -0.0014  0.2500  0.0171  -4.8108   0.0000   0.2389
  -8.500  -0.9474   0.01137   0.00450  -0.0009  0.2500  0.0200  -4.3692   0.0000   0.2399
  -8.000  -0.8938   0.01101   0.00411  -0.0006  0.2500  0.0213  -3.9519   0.0000   0.2407
  -7.500  -0.8401   0.01062   0.00371  -0.0003  0.2500  0.0248  -3.5778   0.0000   0.2416
  -7.000  -0.7858   0.01028   0.00337  -0.0001  0.2500  0.0277  -3.2148   0.0000   0.2423
  -6.500  -0.7312   0.00994   0.00303   0.0002  0.2500  0.0328  -2.8659   0.0000   0.2430
  -6.000  -0.6762   0.00964   0.00275   0.0003  0.2500  0.0374  -2.5296   0.0000   0.2437
  -5.500  -0.6212   0.00932   0.00246   0.0005  0.2500  0.0458  -2.2380   0.0000   0.2444
  -5.000  -0.5659   0.00901   0.00220   0.0006  0.2500  0.0574  -1.9604   0.0000   0.2450
  -4.500  -0.5101   0.00876   0.00198   0.0006  0.2500  0.0689  -1.7020   0.0000   0.2455
  -4.000  -0.4545   0.00846   0.00176   0.0007  0.2500  0.0881  -1.4735   0.0000   0.2461
  -3.500  -0.3987   0.00819   0.00157   0.0007  0.2500  0.1103  -1.2660   0.0000   0.2467
  -3.000  -0.3426   0.00793   0.00141   0.0008  0.2500  0.1368  -1.0791   0.0000   0.2473
  -2.500  -0.2863   0.00769   0.00127   0.0007  0.2500  0.1656  -0.9167   0.0000   0.2479
  -2.000  -0.2303   0.00743   0.00115   0.0007  0.2500  0.2063  -0.7789   0.0000   0.2487
  -1.500  -0.1737   0.00722   0.00106   0.0007  0.2500  0.2435  -0.6621   0.0000   0.2495
  -1.000  -0.1160   0.00717   0.00102   0.0005  0.2500  0.2500  -0.5635   0.0000   0.2498
  -0.500  -0.0580   0.00716   0.00100   0.0002  0.2500  0.2500  -0.4814   0.0000   0.2498
   0.000  -0.0000   0.00716   0.00099   0.0000  0.2500  0.2500  -0.4137   0.0000   0.3812
   0.500   0.0580   0.00716   0.00100  -0.0002  0.2500  0.2500  -0.4814   0.0000   0.2498
   1.000   0.1160   0.00717   0.00102  -0.0005  0.2500  0.2500  -0.5635   0.0000   0.2498
   1.500   0.1737   0.00722   0.00106  -0.0007  0.2435  0.2500  -0.6621   0.0000   0.2495
   2.000   0.2303   0.00743   0.00115  -0.0007  0.2063  0.2500  -0.7789   0.0000   0.2487
   2.500   0.2863   0.00769   0.00127  -0.0007  0.1656  0.2500  -0.9167   0.0000   0.2479
   3.000   0.3426   0.00793   0.00141  -0.0008  0.1368  0.2500  -1.0791   0.0000   0.2473
   3.500   0.3987   0.00819   0.00157  -0.0007  0.1103  0.2500  -1.2660   0.0000   0.2467
   4.000   0.4545   0.00846   0.00176  -0.0007  0.0881  0.2500  -1.4735   0.0000   0.2462
   4.500   0.5101   0.00876   0.00198  -0.0006  0.0689  0.2500  -1.7020   0.0000   0.2455
   5.000   0.5659   0.00901   0.00220  -0.0006  0.0574  0.2500  -1.9605   0.0000   0.2450
   5.500   0.6212   0.00932   0.00246  -0.0005  0.0458  0.2500  -2.2380   0.0000   0.2444
   6.000   0.6762   0.00964   0.00275  -0.0003  0.0374  0.2500  -2.5298   0.0000   0.2437
   6.500   0.7313   0.00994   0.00303  -0.0002  0.0328  0.2500  -2.8660   0.0000   0.2431
   7.000   0.7858   0.01028   0.00337   0.0000  0.0277  0.2500  -3.2150   0.0000   0.2423
   7.500   0.8401   0.01062   0.00371   0.0003  0.0248  0.2500  -3.5781   0.0000   0.2416
   8.000   0.8939   0.01101   0.00411   0.0006  0.0213  0.2500  -3.9522   0.0000   0.2407
   8.500   0.9476   0.01137   0.00450   0.0009  0.0200  0.2500  -4.3696   0.0000   0.2399
   9.000   1.0000   0.01185   0.00498   0.0014  0.0171  0.2500  -4.8113   0.0000   0.2389
   9.500   1.0525   0.01229   0.00546   0.0018  0.0156  0.2500  -5.2687   0.0000   0.2379
  10.000   1.1045   0.01274   0.00595   0.0023  0.0149  0.2500  -5.7419   0.0000   0.2369
  10.500   1.1554   0.01327   0.00651   0.0030  0.0137  0.2500  -6.2262   0.0000   0.2358
  11.000   1.2052   0.01388   0.00715   0.0037  0.0123  0.2500  -6.7191   0.0000   0.2346
  11.500   1.2544   0.01449   0.00782   0.0046  0.0113  0.2500  -7.2218   0.0000   0.2333
  12.000   1.3031   0.01508   0.00847   0.0055  0.0110  0.2500  -7.7459   0.0000   0.2320
  12.500   1.3504   0.01575   0.00920   0.0065  0.0105  0.2500  -8.3205   0.0000   0.2306
  13.000   1.3961   0.01649   0.01000   0.0078  0.0099  0.2500  -8.9014   0.0000   0.2290
  13.500   1.4396   0.01733   0.01089   0.0093  0.0092  0.2500  -9.4849   0.0000   0.2273
  14.000   1.4807   0.01826   0.01189   0.0111  0.0085  0.2500  -10.0669   0.0000   0.2254
  14.500   1.5190   0.01928   0.01300   0.0133  0.0079  0.2500  -10.6412   0.0000   0.2233
  15.000   1.5542   0.02032   0.01414   0.0158  0.0077  0.2500  -11.2115   0.0000   0.2209
  15.500   1.5801   0.02141   0.01532   0.0199  0.0076  0.2500  -11.7343   0.0000   0.2176
  16.000   1.6062   0.02278   0.01679   0.0231  0.0076  0.2500  -12.2650   0.0000   0.2148
  16.500   1.6288   0.02445   0.01857   0.0262  0.0075  0.2500  -12.7770   0.0000   0.2121
  17.000   1.6475   0.02653   0.02078   0.0290  0.0074  0.2500  -13.2636   0.0000   0.2096
  17.500   1.6623   0.02917   0.02354   0.0311  0.0072  0.2500  -13.7208   0.0000   0.2074
  18.000   1.6727   0.03260   0.02710   0.0324  0.0070  0.2500  -14.1409   0.0000   0.2056
  18.500   1.6769   0.03702   0.03167   0.0326  0.0069  0.2500  -14.5041   0.0000   0.2043
  19.000   1.6740   0.04285   0.03766   0.0315  0.0067  0.2500  -14.7946   0.0000   0.2037
  19.500   1.6606   0.05041   0.04540   0.0290  0.0066  0.2500  -14.9739   0.0000   0.2037
  20.000   1.6336   0.06045   0.05564   0.0247  0.0065  0.2500  -15.0005   0.0000   0.2046


