xflr5 v6.42

 Calculated polar for: NACA_6412

 1 1 Reynolds number fixed          Mach number fixed         

 xtrf =   0.250 (top)        0.250 (bottom)
 Mach =   0.000     Re =     0.020 e 6     Ncrit =   5.000

  alpha     CL        CD       CDp       Cm    Top Xtr Bot Xtr   Cpmin    Chinge    XCp    
 ------- -------- --------- --------- -------- ------- ------- -------- --------- ---------
 -10.000  -0.1822   0.13444   0.11985  -0.0569  0.2500  0.2500  -1.2297   0.0000  -0.0910
  -9.500  -0.1726   0.12890   0.11436  -0.0582  0.2500  0.2500  -1.2303   0.0000  -0.1158
  -9.000  -0.1638   0.12344   0.10894  -0.0594  0.2500  0.2500  -1.2297   0.0000  -0.1405
  -8.500  -0.1562   0.11810   0.10368  -0.0603  0.2500  0.2500  -1.2501   0.0000  -0.1637
  -8.000  -0.1502   0.11289   0.09859  -0.0609  0.2500  0.2500  -1.2740   0.0000  -0.1824
  -7.500  -0.1467   0.10788   0.09372  -0.0612  0.2500  0.2500  -1.2986   0.0000  -0.1920
  -7.000  -0.1433   0.10078   0.08663  -0.0672  0.2500  0.1760  -1.4399   0.0000  -0.2423
  -6.500  -0.1423   0.09488   0.08081  -0.0728  0.2500  0.1580  -1.5554   0.0000  -0.2829
  -6.000  -0.1286   0.08848   0.07446  -0.0743  0.2500  0.1542  -1.5695   0.0000  -0.3495
  -5.500  -0.1146   0.08238   0.06836  -0.0778  0.2500  0.1556  -1.5990   0.0000  -0.4503
  -5.000  -0.0937   0.07594   0.06180  -0.0822  0.2500  0.1573  -1.6218   0.0000  -0.6507
  -4.500  -0.0637   0.06915   0.05473  -0.0867  0.2500  0.1570  -1.6224   0.0000  -1.1414
  -4.000  -0.0208   0.06218   0.04720  -0.0938  0.2500  0.1621  -1.6227   0.0000  -4.3467
  -3.500   0.0175   0.05736   0.04218  -0.0943  0.2500  0.1740  -1.5332   0.0000   5.7127
  -3.000   0.0757   0.05177   0.03558  -0.1005  0.2500  0.1859  -1.4954   0.0000   1.5963
  -2.500   0.1279   0.04794   0.03113  -0.1025  0.2500  0.2053  -1.3774   0.0000   1.0599
  -2.000   0.1845   0.04483   0.02720  -0.1047  0.2500  0.2336  -1.2454   0.0000   0.8216
  -1.500   0.2455   0.04192   0.02328  -0.1066  0.2500  0.2500  -1.1462   0.0000   0.6862
  -1.000   0.3039   0.03964   0.02001  -0.1071  0.2500  0.2500  -1.0332   0.0000   0.6029
  -0.500   0.3551   0.03843   0.01823  -0.1064  0.2500  0.2500  -0.8954   0.0000   0.5490
   0.000   0.4021   0.03814   0.01748  -0.1053  0.2500  0.2500  -0.8134   0.0000   0.5104
   0.500   0.4472   0.03839   0.01735  -0.1041  0.2500  0.2500  -0.8463   0.0000   0.4805
   1.000   0.4910   0.03896   0.01761  -0.1029  0.2500  0.2500  -0.8783   0.0000   0.4565
   1.500   0.5336   0.03975   0.01816  -0.1017  0.2500  0.2500  -0.9103   0.0000   0.4367
   2.000   0.5754   0.04074   0.01900  -0.1005  0.2500  0.2500  -0.9432   0.0000   0.4201
   2.500   0.6157   0.04194   0.02013  -0.0993  0.2500  0.2500  -0.9748   0.0000   0.4061
   3.000   0.6542   0.04336   0.02155  -0.0981  0.2500  0.2500  -1.0065   0.0000   0.3941
   3.500   0.6906   0.04503   0.02327  -0.0968  0.2500  0.2500  -1.0370   0.0000   0.3837
   4.000   0.7247   0.04697   0.02537  -0.0955  0.2500  0.2500  -1.0665   0.0000   0.3747
   4.500   0.7561   0.04924   0.02781  -0.0942  0.2500  0.2500  -1.0945   0.0000   0.3669
   5.000   0.7841   0.05195   0.03075  -0.0930  0.2500  0.2500  -1.1189   0.0000   0.3602
   5.500   0.8085   0.05514   0.03422  -0.0918  0.2500  0.2500  -1.1413   0.0000   0.3546
   6.000   0.8292   0.05889   0.03833  -0.0909  0.2500  0.2500  -1.1605   0.0000   0.3499
   6.500   0.8462   0.06324   0.04300  -0.0901  0.2500  0.2500  -1.1752   0.0000   0.3461
   7.000   0.8598   0.06813   0.04821  -0.0894  0.2500  0.2500  -1.1885   0.0000   0.3431
   7.500   0.8727   0.07317   0.05356  -0.0889  0.2500  0.2500  -1.2026   0.0000   0.3402
   8.000   0.8850   0.07830   0.05907  -0.0883  0.2500  0.2500  -1.2194   0.0000   0.3375
   8.500   0.8977   0.08336   0.06445  -0.0878  0.2500  0.2500  -1.2433   0.0000   0.3349
   9.000   0.9112   0.08838   0.06979  -0.0874  0.2500  0.2500  -1.2800   0.0000   0.3322
   9.500   0.9262   0.09327   0.07501  -0.0870  0.2500  0.2500  -1.3467   0.0000   0.3295
  10.000   0.9424   0.09807   0.08025  -0.0867  0.2500  0.2500  -1.4330   0.0000   0.3268
  10.500   0.9595   0.10281   0.08537  -0.0864  0.2500  0.2500  -1.5311   0.0000   0.3241
  11.000   0.9775   0.10753   0.09049  -0.0862  0.2500  0.2500  -1.6405   0.0000   0.3215
  11.500   0.9963   0.11224   0.09563  -0.0861  0.2500  0.2500  -1.7618   0.0000   0.3189
  12.000   1.0153   0.11697   0.10090  -0.0861  0.2500  0.2500  -1.8927   0.0000   0.3164
  12.500   1.0339   0.12191   0.10633  -0.0862  0.2500  0.2500  -2.0284   0.0000   0.3142
  13.000   1.0516   0.12725   0.11220  -0.0865  0.2500  0.2500  -2.1588   0.0000   0.3123
  13.500   1.0679   0.13328   0.11878  -0.0873  0.2500  0.2500  -2.2912   0.0000   0.3109
  14.000   1.0815   0.14049   0.12661  -0.0887  0.2500  0.2500  -2.4031   0.0000   0.3104
  14.500   1.0907   0.14955   0.13622  -0.0910  0.2500  0.2500  -2.4753   0.0000   0.3112
  15.000   1.0941   0.16117   0.14830  -0.0947  0.2500  0.2500  -2.4886   0.0000   0.3137
  15.500   1.0899   0.17531   0.16279  -0.1000  0.2500  0.2500  -2.4349   0.0000   0.3183
  16.000   1.0942   0.18759   0.17537  -0.1040  0.2460  0.2500  -2.4235   0.0000   0.3210
  16.500   1.1088   0.19297   0.18099  -0.1043  0.2208  0.2500  -2.5233   0.0000   0.3190
  17.000   1.1022   0.20267   0.19080  -0.1088  0.2018  0.2500  -2.4730   0.0000   0.3229
  17.500   1.1014   0.21229   0.20050  -0.1133  0.1869  0.2500  -2.4347   0.0000   0.3262
  18.500   1.1157   0.22945   0.21796  -0.1206  0.1606  0.2500  -2.4269   0.0000   0.3296
  19.000   1.1313   0.23755   0.22619  -0.1229  0.1511  0.2500  -2.4873   0.0000   0.3291
  19.500   1.1297   0.24745   0.23611  -0.1297  0.1434  0.2500  -2.4021   0.0000   0.3343
  20.000   1.1378   0.25687   0.24562  -0.1346  0.1394  0.2500  -2.3735   0.0000   0.3369


