xflr5 v6.42

 Calculated polar for: NACA_6412

 1 1 Reynolds number fixed          Mach number fixed         

 xtrf =   0.250 (top)        0.250 (bottom)
 Mach =   0.000     Re =     0.200 e 6     Ncrit =   5.000

  alpha     CL        CD       CDp       Cm    Top Xtr Bot Xtr   Cpmin    Chinge    XCp    
 ------- -------- --------- --------- -------- ------- ------- -------- --------- ---------
 -10.000  -0.1511   0.10472   0.09749  -0.0756  0.2500  0.0241  -1.8739   0.0000  -0.2880
  -9.500  -0.1414   0.09803   0.09082  -0.0785  0.2500  0.0237  -1.9367   0.0000  -0.3434
  -9.000  -0.1343   0.09083   0.08365  -0.0819  0.2500  0.0238  -2.0432   0.0000  -0.3984
  -8.500  -0.1303   0.08296   0.07582  -0.0862  0.2500  0.0241  -2.1950   0.0000  -0.4485
  -8.000  -0.1318   0.07420   0.06712  -0.0913  0.2500  0.0246  -2.4403   0.0000  -0.4780
  -7.500  -0.1291   0.06434   0.05732  -0.1012  0.2500  0.0261  -2.7098   0.0000  -0.5675
  -7.000  -0.1229   0.03339   0.02547  -0.1345  0.2500  0.0281  -3.9112   0.0000  -0.8805
  -6.500  -0.0793   0.02604   0.01696  -0.1384  0.2500  0.0304  -3.8741   0.0000  -1.5491
  -6.000  -0.0286   0.02297   0.01310  -0.1391  0.2500  0.0327  -3.6201   0.0000  -4.7460
  -5.500   0.0234   0.02163   0.01157  -0.1394  0.2500  0.0362  -3.2463   0.0000   6.3554
  -5.000   0.0767   0.02023   0.00980  -0.1394  0.2500  0.0398  -2.9149   0.0000   2.1074
  -4.500   0.1303   0.01887   0.00811  -0.1393  0.2500  0.0436  -2.6181   0.0000   1.3402
  -4.000   0.1843   0.01828   0.00739  -0.1392  0.2500  0.0498  -2.3110   0.0000   1.0182
  -3.500   0.2384   0.01749   0.00640  -0.1390  0.2500  0.0565  -2.0338   0.0000   0.8415
  -3.000   0.2926   0.01705   0.00587  -0.1388  0.2500  0.0661  -1.7467   0.0000   0.7300
  -2.500   0.3468   0.01657   0.00533  -0.1386  0.2500  0.0778  -1.4917   0.0000   0.6533
  -2.000   0.4010   0.01628   0.00496  -0.1384  0.2500  0.0939  -1.2616   0.0000   0.5972
  -1.500   0.4551   0.01607   0.00472  -0.1382  0.2500  0.1143  -1.0384   0.0000   0.5545
  -1.000   0.5090   0.01591   0.00459  -0.1379  0.2500  0.1424  -0.8774   0.0000   0.5209
  -0.500   0.5626   0.01580   0.00455  -0.1376  0.2500  0.1794  -0.9200   0.0000   0.4937
   0.000   0.6160   0.01574   0.00457  -0.1373  0.2500  0.2248  -0.9661   0.0000   0.4712
   0.500   0.6691   0.01578   0.00460  -0.1369  0.2500  0.2500  -1.0123   0.0000   0.4522
   1.000   0.7219   0.01595   0.00466  -0.1363  0.2500  0.2500  -1.0587   0.0000   0.4358
   1.500   0.7742   0.01615   0.00479  -0.1357  0.2500  0.2500  -1.1051   0.0000   0.4216
   2.000   0.8260   0.01638   0.00498  -0.1350  0.2500  0.2500  -1.1514   0.0000   0.4092
   2.500   0.8771   0.01663   0.00523  -0.1343  0.2500  0.2500  -1.1976   0.0000   0.3982
   3.000   0.9276   0.01692   0.00552  -0.1334  0.2500  0.2500  -1.2436   0.0000   0.3883
   3.500   0.9774   0.01722   0.00586  -0.1325  0.2500  0.2500  -1.2912   0.0000   0.3794
   4.000   1.0263   0.01756   0.00626  -0.1314  0.2500  0.2500  -1.3401   0.0000   0.3712
   4.500   1.0743   0.01792   0.00670  -0.1302  0.2500  0.2500  -1.3900   0.0000   0.3637
   5.000   1.1213   0.01832   0.00719  -0.1288  0.2500  0.2500  -1.4413   0.0000   0.3567
   5.500   1.1659   0.01873   0.00774  -0.1270  0.2500  0.2500  -1.4946   0.0000   0.3501
   6.000   1.2090   0.01919   0.00834  -0.1249  0.2500  0.2500  -1.5516   0.0000   0.3439
   6.500   1.2526   0.01972   0.00905  -0.1231  0.2500  0.2500  -1.6131   0.0000   0.3381
   7.000   1.2954   0.02030   0.00981  -0.1212  0.2500  0.2500  -1.7806   0.0000   0.3327
   7.500   1.3375   0.02095   0.01064  -0.1193  0.2500  0.2500  -1.9832   0.0000   0.3276
   8.000   1.3785   0.02165   0.01159  -0.1173  0.2500  0.2500  -2.2115   0.0000   0.3227
   8.500   1.4182   0.02244   0.01261  -0.1152  0.2500  0.2500  -2.4474   0.0000   0.3180
   9.000   1.4565   0.02330   0.01374  -0.1129  0.2500  0.2500  -2.7110   0.0000   0.3135
   9.500   1.4937   0.02425   0.01501  -0.1106  0.2500  0.2500  -2.9812   0.0000   0.3092
  10.000   1.5295   0.02531   0.01638  -0.1082  0.2500  0.2500  -3.2740   0.0000   0.3051
  10.500   1.5636   0.02650   0.01791  -0.1057  0.2500  0.2500  -3.5791   0.0000   0.3010
  11.000   1.5705   0.02943   0.02086  -0.1005  0.2155  0.2500  -3.7950   0.0000   0.2964
  11.500   1.5578   0.03414   0.02536  -0.0942  0.1635  0.2500  -3.9396   0.0000   0.2920
  12.000   1.5429   0.03965   0.03073  -0.0891  0.1219  0.2500  -4.0717   0.0000   0.2882
  12.500   1.5287   0.04570   0.03672  -0.0851  0.0923  0.2500  -4.2021   0.0000   0.2852
  13.500   1.5114   0.05821   0.04939  -0.0804  0.0607  0.2500  -4.5038   0.0000   0.2806
  14.000   1.5045   0.06486   0.05623  -0.0791  0.0523  0.2500  -4.6725   0.0000   0.2789
  14.500   1.4946   0.07214   0.06366  -0.0783  0.0458  0.2500  -4.8251   0.0000   0.2777
  15.000   1.4867   0.07935   0.07107  -0.0779  0.0410  0.2500  -4.9829   0.0000   0.2766
  15.500   1.4804   0.08656   0.07849  -0.0779  0.0370  0.2500  -5.1483   0.0000   0.2757
  16.000   1.4690   0.09463   0.08671  -0.0784  0.0339  0.2500  -5.2822   0.0000   0.2753
  16.500   1.4612   0.10228   0.09457  -0.0790  0.0316  0.2500  -5.4268   0.0000   0.2749
  17.000   1.4574   0.10938   0.10194  -0.0799  0.0293  0.2500  -5.5940   0.0000   0.2745
  17.500   1.4530   0.11672   0.10947  -0.0812  0.0271  0.2500  -5.7584   0.0000   0.2744
  18.000   1.4458   0.12452   0.11738  -0.0829  0.0252  0.2500  -5.9013   0.0000   0.2747
  18.500   1.4434   0.13160   0.12467  -0.0847  0.0236  0.2500  -6.0608   0.0000   0.2747
  19.000   1.4440   0.13827   0.13158  -0.0865  0.0223  0.2500  -6.2509   0.0000   0.2748
  19.500   1.4440   0.14503   0.13854  -0.0887  0.0210  0.2500  -6.4464   0.0000   0.2750
  20.000   1.4427   0.15219   0.14590  -0.0916  0.0200  0.2500  -6.6287   0.0000   0.2757


