xflr5 v6.42

 Calculated polar for: NACA_6412

 1 1 Reynolds number fixed          Mach number fixed         

 xtrf =   0.250 (top)        0.250 (bottom)
 Mach =   0.000     Re =     0.800 e 6     Ncrit =   5.000

  alpha     CL        CD       CDp       Cm    Top Xtr Bot Xtr   Cpmin    Chinge    XCp    
 ------- -------- --------- --------- -------- ------- ------- -------- --------- ---------
 -10.000  -0.4438   0.02020   0.01354  -0.1429  0.2500  0.0138  -7.8693   0.0000  -0.0910
  -9.500  -0.3925   0.01881   0.01187  -0.1432  0.2500  0.0142  -7.3522   0.0000  -0.1346
  -9.000  -0.3411   0.01728   0.01006  -0.1435  0.2500  0.0149  -6.8665   0.0000  -0.1916
  -8.500  -0.2880   0.01620   0.00878  -0.1437  0.2500  0.0159  -6.3600   0.0000  -0.2717
  -8.000  -0.2337   0.01545   0.00787  -0.1439  0.2500  0.0169  -5.8466   0.0000  -0.3911
  -7.500  -0.1789   0.01480   0.00705  -0.1440  0.2500  0.0180  -5.3489   0.0000  -0.5849
  -7.000  -0.1238   0.01423   0.00632  -0.1440  0.2500  0.0189  -4.8653   0.0000  -0.9535
  -6.500  -0.0686   0.01363   0.00556  -0.1441  0.2500  0.0204  -4.4017   0.0000  -1.9180
  -6.000  -0.0130   0.01318   0.00503  -0.1442  0.2500  0.0225  -3.9454   0.0000  -11.1883
  -5.500   0.0429   0.01281   0.00454  -0.1443  0.2500  0.0243  -3.5087   0.0000   3.7009
  -5.000   0.0988   0.01247   0.00409  -0.1444  0.2500  0.0262  -3.0917   0.0000   1.7439
  -4.500   0.1548   0.01216   0.00374  -0.1444  0.2500  0.0300  -2.7308   0.0000   1.2018
  -4.000   0.2109   0.01198   0.00347  -0.1445  0.2500  0.0328  -2.3889   0.0000   0.9470
  -3.500   0.2669   0.01173   0.00320  -0.1446  0.2500  0.0386  -2.0654   0.0000   0.7995
  -3.000   0.3230   0.01159   0.00300  -0.1446  0.2500  0.0434  -1.7534   0.0000   0.7030
  -2.500   0.3789   0.01145   0.00287  -0.1447  0.2500  0.0527  -1.4839   0.0000   0.6352
  -2.000   0.4348   0.01134   0.00276  -0.1447  0.2500  0.0635  -1.2364   0.0000   0.5848
  -1.500   0.4907   0.01127   0.00270  -0.1447  0.2500  0.0775  -1.0006   0.0000   0.5459
  -1.000   0.5464   0.01122   0.00268  -0.1448  0.2500  0.0946  -0.8882   0.0000   0.5149
  -0.500   0.6019   0.01120   0.00270  -0.1448  0.2500  0.1153  -0.9353   0.0000   0.4896
   0.000   0.6572   0.01119   0.00275  -0.1448  0.2500  0.1445  -0.9827   0.0000   0.4686
   0.500   0.7124   0.01119   0.00284  -0.1447  0.2500  0.1790  -1.0303   0.0000   0.4509
   1.000   0.7673   0.01123   0.00295  -0.1447  0.2500  0.2151  -1.0780   0.0000   0.4356
   1.500   0.8220   0.01129   0.00309  -0.1446  0.2500  0.2500  -1.1259   0.0000   0.4223
   2.000   0.8763   0.01144   0.00322  -0.1444  0.2500  0.2500  -1.1772   0.0000   0.4105
   2.500   0.9302   0.01161   0.00339  -0.1441  0.2500  0.2500  -1.2290   0.0000   0.4000
   3.000   0.9837   0.01178   0.00357  -0.1438  0.2500  0.2500  -1.2809   0.0000   0.3907
   3.500   1.0367   0.01197   0.00379  -0.1434  0.2500  0.2500  -1.3328   0.0000   0.3822
   4.000   1.0892   0.01217   0.00403  -0.1429  0.2500  0.2500  -1.3848   0.0000   0.3745
   4.500   1.1412   0.01239   0.00429  -0.1423  0.2500  0.2500  -1.4375   0.0000   0.3673
   5.000   1.1925   0.01262   0.00459  -0.1417  0.2500  0.2500  -1.4932   0.0000   0.3608
   5.500   1.2430   0.01287   0.00490  -0.1409  0.2500  0.2500  -1.5543   0.0000   0.3546
   6.000   1.2927   0.01313   0.00526  -0.1400  0.2500  0.2500  -1.6190   0.0000   0.3489
   6.500   1.3414   0.01341   0.00564  -0.1390  0.2500  0.2500  -1.7678   0.0000   0.3434
   7.000   1.3870   0.01370   0.00604  -0.1373  0.2500  0.2500  -1.9779   0.0000   0.3381
   7.500   1.4310   0.01403   0.00650  -0.1353  0.2500  0.2500  -2.2181   0.0000   0.3329
   8.000   1.4763   0.01441   0.00701  -0.1337  0.2500  0.2500  -2.4720   0.0000   0.3282
   8.500   1.5133   0.01524   0.00784  -0.1309  0.2294  0.2500  -2.7375   0.0000   0.3233
   9.000   1.5300   0.01720   0.00949  -0.1250  0.1701  0.2500  -2.9509   0.0000   0.3177
   9.500   1.5441   0.01934   0.01138  -0.1191  0.1204  0.2500  -3.1778   0.0000   0.3123
  10.000   1.5592   0.02154   0.01344  -0.1138  0.0861  0.2500  -3.4187   0.0000   0.3073
  10.500   1.5731   0.02394   0.01575  -0.1088  0.0617  0.2500  -3.6612   0.0000   0.3026
  11.000   1.5895   0.02636   0.01817  -0.1047  0.0475  0.2500  -3.9180   0.0000   0.2984
  11.500   1.6069   0.02883   0.02070  -0.1010  0.0390  0.2500  -4.1843   0.0000   0.2944
  12.000   1.6202   0.03180   0.02372  -0.0974  0.0319  0.2500  -4.4399   0.0000   0.2907
  12.500   1.6332   0.03499   0.02701  -0.0942  0.0274  0.2500  -4.7147   0.0000   0.2873
  13.000   1.6438   0.03856   0.03069  -0.0913  0.0240  0.2500  -4.9940   0.0000   0.2841
  13.500   1.6543   0.04239   0.03466  -0.0888  0.0218  0.2500  -5.2785   0.0000   0.2812
  14.000   1.6598   0.04697   0.03935  -0.0866  0.0194  0.2500  -5.5420   0.0000   0.2786
  14.500   1.6633   0.05198   0.04451  -0.0848  0.0177  0.2500  -5.7967   0.0000   0.2762
  15.000   1.6664   0.05720   0.04991  -0.0833  0.0166  0.2500  -6.0534   0.0000   0.2741
  15.500   1.6661   0.06304   0.05590  -0.0822  0.0153  0.2500  -6.2938   0.0000   0.2723
  16.000   1.6623   0.06947   0.06247  -0.0814  0.0140  0.2500  -6.5157   0.0000   0.2708
  16.500   1.6559   0.07631   0.06948  -0.0809  0.0129  0.2500  -6.7195   0.0000   0.2694
  17.000   1.6520   0.08298   0.07634  -0.0807  0.0125  0.2500  -6.9394   0.0000   0.2682
  17.500   1.6462   0.09004   0.08358  -0.0809  0.0119  0.2500  -7.1671   0.0000   0.2673
  18.000   1.6388   0.09742   0.09115  -0.0814  0.0113  0.2500  -7.3871   0.0000   0.2666
  18.500   1.6301   0.10504   0.09894  -0.0823  0.0108  0.2500  -7.5962   0.0000   0.2661
  19.000   1.6200   0.11286   0.10692  -0.0835  0.0102  0.2500  -7.7927   0.0000   0.2659
  19.500   1.6098   0.12087   0.11509  -0.0851  0.0096  0.2500  -7.9812   0.0000   0.2659
  20.000   1.5977   0.12932   0.12371  -0.0873  0.0091  0.2500  -8.1438   0.0000   0.2664


