xflr5 v6.42

 Calculated polar for: NACA_0012

 1 1 Reynolds number fixed          Mach number fixed         

 xtrf =   0.250 (top)        0.250 (bottom)
 Mach =   0.000     Re =     0.100 e 6     Ncrit =   5.000

  alpha     CL        CD       CDp       Cm    Top Xtr Bot Xtr   Cpmin    Chinge    XCp    
 ------- -------- --------- --------- -------- ------- ------- -------- --------- ---------
 -10.000  -0.9646   0.03522   0.02449  -0.0213  0.2500  0.0503  -4.5832   0.0000   0.2171
  -9.500  -0.9312   0.03301   0.02207  -0.0191  0.2500  0.0559  -4.2762   0.0000   0.2192
  -9.000  -0.8926   0.03071   0.01932  -0.0171  0.2500  0.0614  -3.9824   0.0000   0.2211
  -8.500  -0.8563   0.02828   0.01684  -0.0149  0.2500  0.0689  -3.6907   0.0000   0.2233
  -8.000  -0.8148   0.02651   0.01481  -0.0131  0.2500  0.0793  -3.4172   0.0000   0.2252
  -7.500  -0.7743   0.02472   0.01295  -0.0112  0.2500  0.0925  -3.1449   0.0000   0.2273
  -7.000  -0.7317   0.02316   0.01131  -0.0095  0.2500  0.1120  -2.8686   0.0000   0.2293
  -6.500  -0.6871   0.02179   0.00989  -0.0079  0.2500  0.1393  -2.5912   0.0000   0.2312
  -6.000  -0.6423   0.02048   0.00871  -0.0065  0.2500  0.1787  -2.3388   0.0000   0.2331
  -5.500  -0.5959   0.01938   0.00771  -0.0051  0.2500  0.2319  -2.0932   0.0000   0.2349
  -5.000  -0.5451   0.01870   0.00681  -0.0041  0.2500  0.2500  -1.8458   0.0000   0.2363
  -4.500  -0.4918   0.01831   0.00605  -0.0035  0.2500  0.2500  -1.6226   0.0000   0.2371
  -4.000  -0.4380   0.01799   0.00544  -0.0029  0.2500  0.2500  -1.4066   0.0000   0.2378
  -3.500  -0.3837   0.01774   0.00494  -0.0025  0.2500  0.2500  -1.2186   0.0000   0.2382
  -3.000  -0.3292   0.01753   0.00450  -0.0021  0.2500  0.2500  -1.0464   0.0000   0.2386
  -2.500  -0.2745   0.01736   0.00416  -0.0017  0.2500  0.2500  -0.8946   0.0000   0.2389
  -2.000  -0.2198   0.01722   0.00387  -0.0013  0.2500  0.2500  -0.7637   0.0000   0.2391
  -1.500  -0.1649   0.01712   0.00366  -0.0010  0.2500  0.2500  -0.6526   0.0000   0.2393
  -1.000  -0.1100   0.01705   0.00350  -0.0007  0.2500  0.2500  -0.5592   0.0000   0.2395
  -0.500  -0.0550   0.01701   0.00341  -0.0003  0.2500  0.2500  -0.4824   0.0000   0.2395
   0.000   0.0000   0.01699   0.00339  -0.0000  0.2500  0.2500  -0.4176   0.0000   0.3940
   0.500   0.0550   0.01701   0.00341   0.0003  0.2500  0.2500  -0.4824   0.0000   0.2395
   1.000   0.1100   0.01705   0.00350   0.0007  0.2500  0.2500  -0.5592   0.0000   0.2395
   1.500   0.1649   0.01712   0.00366   0.0010  0.2500  0.2500  -0.6526   0.0000   0.2393
   2.000   0.2198   0.01722   0.00387   0.0013  0.2500  0.2500  -0.7637   0.0000   0.2391
   2.500   0.2745   0.01736   0.00416   0.0017  0.2500  0.2500  -0.8946   0.0000   0.2389
   3.000   0.3292   0.01753   0.00450   0.0021  0.2500  0.2500  -1.0464   0.0000   0.2386
   3.500   0.3837   0.01774   0.00494   0.0025  0.2500  0.2500  -1.2186   0.0000   0.2382
   4.000   0.4380   0.01799   0.00544   0.0029  0.2500  0.2500  -1.4067   0.0000   0.2378
   4.500   0.4919   0.01831   0.00605   0.0034  0.2500  0.2500  -1.6226   0.0000   0.2372
   5.000   0.5451   0.01870   0.00681   0.0041  0.2500  0.2500  -1.8459   0.0000   0.2363
   5.500   0.5960   0.01938   0.00771   0.0051  0.2319  0.2500  -2.0933   0.0000   0.2349
   6.000   0.6423   0.02048   0.00871   0.0064  0.1786  0.2500  -2.3389   0.0000   0.2331
   6.500   0.6872   0.02179   0.00989   0.0079  0.1393  0.2500  -2.5915   0.0000   0.2312
   7.000   0.7318   0.02316   0.01131   0.0095  0.1119  0.2500  -2.8689   0.0000   0.2293
   7.500   0.7744   0.02472   0.01295   0.0112  0.0925  0.2500  -3.1453   0.0000   0.2274
   8.000   0.8150   0.02652   0.01482   0.0131  0.0792  0.2500  -3.4177   0.0000   0.2253
   8.500   0.8566   0.02828   0.01684   0.0149  0.0689  0.2500  -3.6914   0.0000   0.2234
   9.000   0.8929   0.03071   0.01932   0.0170  0.0614  0.2500  -3.9833   0.0000   0.2212
   9.500   0.9316   0.03301   0.02207   0.0190  0.0559  0.2500  -4.2774   0.0000   0.2193
  10.000   0.9650   0.03522   0.02449   0.0212  0.0503  0.2500  -4.5848   0.0000   0.2171
  10.500   0.9937   0.03870   0.02825   0.0236  0.0469  0.2500  -4.8432   0.0000   0.2148
  11.000   1.0153   0.04259   0.03273   0.0266  0.0444  0.2500  -5.0422   0.0000   0.2118
  11.500   1.0233   0.04660   0.03723   0.0303  0.0419  0.2500  -5.2001   0.0000   0.2076
  12.000   1.0244   0.05060   0.04156   0.0334  0.0397  0.2500  -5.3558   0.0000   0.2038
  12.500   1.0227   0.05522   0.04638   0.0349  0.0379  0.2500  -5.5059   0.0000   0.2015
  13.000   1.0048   0.06264   0.05410   0.0342  0.0368  0.2500  -5.5200   0.0000   0.2006
  13.500   0.9646   0.07409   0.06605   0.0287  0.0366  0.2500  -5.3503   0.0000   0.2039
  14.000   0.9053   0.09158   0.08398   0.0170  0.0368  0.2500  -4.9682   0.0000   0.2138
  14.500   0.7365   0.14363   0.13623  -0.0136  0.0380  0.2500  -3.0856   0.0000   0.2520
  15.000   0.7347   0.15336   0.14597  -0.0176  0.0371  0.2500  -3.0109   0.0000   0.2569
  15.500   0.7281   0.16607   0.15865  -0.0231  0.0366  0.2500  -2.8011   0.0000   0.2643
  16.000   0.7281   0.17757   0.17015  -0.0280  0.0365  0.2500  -2.6350   0.0000   0.2708
  16.500   0.7307   0.18849   0.18108  -0.0331  0.0361  0.2500  -2.4767   0.0000   0.2773
  17.000   0.7311   0.19972   0.19231  -0.0395  0.0343  0.2500  -2.2567   0.0000   0.2856
  17.500   0.7401   0.20856   0.20117  -0.0439  0.0342  0.2500  -2.1711   0.0000   0.2903
  18.000   0.7517   0.21685   0.20950  -0.0478  0.0350  0.2500  -2.1175   0.0000   0.2939
  18.500   0.7684   0.22435   0.21706  -0.0501  0.0362  0.2500  -2.1537   0.0000   0.2949
  19.000   0.7896   0.23895   0.23176  -0.0511  0.0477  0.2500  -2.0981   0.0000   0.2941
  19.500   0.8010   0.24709   0.23993  -0.0558  0.0476  0.2500  -2.0588   0.0000   0.2984
  20.000   0.8038   0.25167   0.24447  -0.0641  0.0465  0.2500  -1.8885   0.0000   0.3076


