xflr5 v6.42

 Calculated polar for: NACA_6412

 1 1 Reynolds number fixed          Mach number fixed         

 xtrf =   0.250 (top)        0.250 (bottom)
 Mach =   0.000     Re =     0.025 e 6     Ncrit =   5.000

  alpha     CL        CD       CDp       Cm    Top Xtr Bot Xtr   Cpmin    Chinge    XCp    
 ------- -------- --------- --------- -------- ------- ------- -------- --------- ---------
 -10.000  -0.1922   0.13612   0.12257  -0.0608  0.2500  0.2146  -1.2905   0.0000  -0.0925
  -9.500  -0.1682   0.12670   0.11316  -0.0612  0.2500  0.2209  -1.2442   0.0000  -0.1429
  -9.000  -0.1506   0.12023   0.10667  -0.0615  0.2500  0.2308  -1.2068   0.0000  -0.1891
  -8.500  -0.1654   0.11940   0.10606  -0.0627  0.2500  0.2419  -1.2608   0.0000  -0.1547
  -8.000  -0.1590   0.11343   0.10023  -0.0633  0.2500  0.2445  -1.2839   0.0000  -0.1726
  -7.500  -0.1416   0.10461   0.09133  -0.0676  0.2500  0.1835  -1.3716   0.0000  -0.2529
  -6.500  -0.1338   0.09103   0.07786  -0.0792  0.2500  0.1339  -1.6305   0.0000  -0.3640
  -6.000  -0.1164   0.08424   0.07109  -0.0800  0.2500  0.1306  -1.6255   0.0000  -0.4605
  -5.500  -0.0981   0.07753   0.06435  -0.0830  0.2500  0.1275  -1.6484   0.0000  -0.6221
  -5.000  -0.0736   0.07067   0.05733  -0.0880  0.2500  0.1284  -1.6748   0.0000  -0.9761
  -4.500  -0.0366   0.06329   0.04945  -0.0957  0.2500  0.1337  -1.7092   0.0000  -2.4193
  -4.000   0.0094   0.05604   0.04160  -0.1017  0.2500  0.1362  -1.6983   0.0000  11.2891
  -3.500   0.0499   0.05184   0.03721  -0.1020  0.2500  0.1480  -1.5823   0.0000   2.3231
  -3.000   0.1100   0.04635   0.03062  -0.1074  0.2500  0.1598  -1.5400   0.0000   1.2383
  -2.500   0.1608   0.04318   0.02693  -0.1084  0.2500  0.1807  -1.3978   0.0000   0.9307
  -2.000   0.2178   0.04036   0.02331  -0.1099  0.2500  0.2040  -1.2577   0.0000   0.7582
  -1.500   0.2740   0.03830   0.02050  -0.1107  0.2500  0.2368  -1.1274   0.0000   0.6554
  -1.000   0.3312   0.03628   0.01774  -0.1108  0.2500  0.2500  -0.9988   0.0000   0.5848
  -0.500   0.3838   0.03504   0.01596  -0.1100  0.2500  0.2500  -0.8614   0.0000   0.5360
   0.000   0.4322   0.03475   0.01523  -0.1090  0.2500  0.2500  -0.8384   0.0000   0.5006
   0.500   0.4785   0.03495   0.01507  -0.1078  0.2500  0.2500  -0.8727   0.0000   0.4728
   1.000   0.5235   0.03541   0.01523  -0.1065  0.2500  0.2500  -0.9069   0.0000   0.4503
   1.500   0.5675   0.03605   0.01566  -0.1052  0.2500  0.2500  -0.9406   0.0000   0.4315
   2.000   0.6104   0.03684   0.01631  -0.1038  0.2500  0.2500  -0.9760   0.0000   0.4155
   2.500   0.6525   0.03778   0.01719  -0.1025  0.2500  0.2500  -1.0106   0.0000   0.4019
   3.000   0.6937   0.03889   0.01828  -0.1012  0.2500  0.2500  -1.0455   0.0000   0.3900
   3.500   0.7334   0.04017   0.01961  -0.0998  0.2500  0.2500  -1.0809   0.0000   0.3797
   4.000   0.7711   0.04165   0.02122  -0.0984  0.2500  0.2500  -1.1153   0.0000   0.3705
   4.500   0.8068   0.04335   0.02308  -0.0970  0.2500  0.2500  -1.1500   0.0000   0.3624
   5.000   0.8400   0.04532   0.02526  -0.0955  0.2500  0.2500  -1.1821   0.0000   0.3553
   5.500   0.8707   0.04760   0.02785  -0.0940  0.2500  0.2500  -1.2148   0.0000   0.3489
   6.000   0.8980   0.05028   0.03084  -0.0925  0.2500  0.2500  -1.2450   0.0000   0.3433
   6.500   0.9214   0.05349   0.03441  -0.0912  0.2500  0.2500  -1.2725   0.0000   0.3385
   7.000   0.9407   0.05729   0.03867  -0.0900  0.2500  0.2500  -1.2976   0.0000   0.3345
   7.500   0.9560   0.06175   0.04354  -0.0890  0.2500  0.2500  -1.3196   0.0000   0.3313
   8.000   0.9666   0.06693   0.04914  -0.0882  0.2500  0.2500  -1.3393   0.0000   0.3288
   8.500   0.9744   0.07262   0.05523  -0.0877  0.2500  0.2500  -1.3649   0.0000   0.3268
   9.000   0.9816   0.07843   0.06142  -0.0872  0.2500  0.2500  -1.4223   0.0000   0.3250
   9.500   0.9901   0.08410   0.06754  -0.0868  0.2500  0.2500  -1.4971   0.0000   0.3230
  10.000   1.0005   0.08956   0.07338  -0.0864  0.2500  0.2500  -1.5840   0.0000   0.3210
  10.500   1.0127   0.09482   0.07903  -0.0861  0.2500  0.2500  -1.6831   0.0000   0.3189
  11.000   1.0266   0.09994   0.08455  -0.0858  0.2500  0.2500  -1.7952   0.0000   0.3166
  11.500   1.0417   0.10500   0.09009  -0.0856  0.2500  0.2500  -1.9183   0.0000   0.3144
  12.000   1.0582   0.10995   0.09550  -0.0854  0.2500  0.2500  -2.0537   0.0000   0.3121
  12.500   1.0749   0.11497   0.10099  -0.0853  0.2500  0.2500  -2.1900   0.0000   0.3100
  13.000   1.0910   0.12033   0.10686  -0.0855  0.2500  0.2500  -2.3339   0.0000   0.3081
  13.500   1.1054   0.12642   0.11355  -0.0860  0.2500  0.2500  -2.4684   0.0000   0.3067
  14.000   1.1160   0.13398   0.12165  -0.0873  0.2500  0.2500  -2.5730   0.0000   0.3064
  14.500   1.1194   0.14428   0.13246  -0.0899  0.2500  0.2500  -2.6169   0.0000   0.3078
  15.000   1.1121   0.15859   0.14716  -0.0947  0.2500  0.2500  -2.5698   0.0000   0.3122
  15.500   1.1063   0.16999   0.15880  -0.0983  0.2357  0.2500  -2.5473   0.0000   0.3152
  16.000   1.1113   0.17631   0.16534  -0.0996  0.2089  0.2500  -2.6138   0.0000   0.3150
  16.500   1.1163   0.18348   0.17269  -0.1015  0.1862  0.2500  -2.6611   0.0000   0.3154
  17.000   1.1222   0.19137   0.18074  -0.1040  0.1684  0.2500  -2.6935   0.0000   0.3162
  17.500   1.1357   0.19702   0.18662  -0.1052  0.1506  0.2500  -2.7845   0.0000   0.3150
  18.000   1.1247   0.21104   0.20065  -0.1126  0.1414  0.2500  -2.6348   0.0000   0.3220
  18.500   1.1401   0.21723   0.20699  -0.1142  0.1292  0.2500  -2.7308   0.0000   0.3209
  19.000   1.1339   0.23043   0.22018  -0.1219  0.1227  0.2500  -2.5942   0.0000   0.3275
  19.500   1.1403   0.24049   0.23033  -0.1269  0.1172  0.2500  -2.5609   0.0000   0.3304
  20.000   1.1560   0.24744   0.23738  -0.1291  0.1087  0.2500  -2.6406   0.0000   0.3297


