xflr5 v6.42

 Calculated polar for: NACA_0012

 1 1 Reynolds number fixed          Mach number fixed         

 xtrf =   0.250 (top)        0.250 (bottom)
 Mach =   0.000     Re =     1.000 e 6     Ncrit =   5.000

  alpha     CL        CD       CDp       Cm    Top Xtr Bot Xtr   Cpmin    Chinge    XCp    
 ------- -------- --------- --------- -------- ------- ------- -------- --------- ---------
 -10.000  -1.0780   0.01616   0.00834  -0.0063  0.2500  0.0201  -5.5638   0.0000   0.2332
  -9.500  -1.0286   0.01554   0.00762  -0.0054  0.2500  0.0213  -5.1126   0.0000   0.2344
  -9.000  -0.9796   0.01480   0.00682  -0.0045  0.2500  0.0243  -4.6835   0.0000   0.2357
  -8.500  -0.9290   0.01421   0.00618  -0.0038  0.2500  0.0270  -4.2583   0.0000   0.2367
  -8.000  -0.8774   0.01368   0.00558  -0.0032  0.2500  0.0298  -3.8652   0.0000   0.2377
  -7.500  -0.8259   0.01312   0.00501  -0.0026  0.2500  0.0351  -3.5039   0.0000   0.2387
  -7.000  -0.7733   0.01265   0.00450  -0.0021  0.2500  0.0407  -3.1533   0.0000   0.2396
  -6.500  -0.7203   0.01220   0.00404  -0.0017  0.2500  0.0472  -2.8139   0.0000   0.2405
  -6.000  -0.6672   0.01172   0.00359  -0.0013  0.2500  0.0588  -2.4912   0.0000   0.2413
  -5.500  -0.6135   0.01131   0.00320  -0.0009  0.2500  0.0721  -2.2089   0.0000   0.2421
  -5.000  -0.5597   0.01088   0.00284  -0.0006  0.2500  0.0918  -1.9375   0.0000   0.2429
  -4.500  -0.5055   0.01050   0.00253  -0.0003  0.2500  0.1149  -1.6876   0.0000   0.2437
  -4.000  -0.4512   0.01010   0.00223  -0.0000  0.2500  0.1473  -1.4631   0.0000   0.2445
  -3.500  -0.3969   0.00970   0.00197   0.0002  0.2500  0.1872  -1.2610   0.0000   0.2453
  -3.000  -0.3423   0.00932   0.00175   0.0004  0.2500  0.2326  -1.0780   0.0000   0.2463
  -2.500  -0.2861   0.00916   0.00161   0.0004  0.2500  0.2500  -0.9164   0.0000   0.2468
  -2.000  -0.2289   0.00912   0.00151   0.0004  0.2500  0.2500  -0.7774   0.0000   0.2470
  -1.500  -0.1717   0.00909   0.00144   0.0003  0.2500  0.2500  -0.6604   0.0000   0.2472
  -1.000  -0.1145   0.00907   0.00139   0.0002  0.2500  0.2500  -0.5626   0.0000   0.2473
  -0.500  -0.0573   0.00905   0.00136   0.0001  0.2500  0.2500  -0.4817   0.0000   0.2474
   0.000   0.0000   0.00905   0.00135  -0.0000  0.2500  0.2500  -0.4147   0.0000   0.4499
   0.500   0.0573   0.00905   0.00136  -0.0001  0.2500  0.2500  -0.4817   0.0000   0.2474
   1.000   0.1145   0.00907   0.00139  -0.0002  0.2500  0.2500  -0.5626   0.0000   0.2473
   1.500   0.1717   0.00909   0.00144  -0.0003  0.2500  0.2500  -0.6604   0.0000   0.2472
   2.000   0.2289   0.00912   0.00151  -0.0004  0.2500  0.2500  -0.7774   0.0000   0.2470
   2.500   0.2861   0.00916   0.00161  -0.0005  0.2500  0.2500  -0.9164   0.0000   0.2468
   3.000   0.3423   0.00932   0.00175  -0.0004  0.2326  0.2500  -1.0780   0.0000   0.2463
   3.500   0.3969   0.00970   0.00197  -0.0002  0.1872  0.2500  -1.2610   0.0000   0.2453
   4.000   0.4512   0.01010   0.00223   0.0000  0.1473  0.2500  -1.4632   0.0000   0.2445
   4.500   0.5055   0.01050   0.00253   0.0003  0.1149  0.2500  -1.6876   0.0000   0.2437
   5.000   0.5597   0.01088   0.00284   0.0006  0.0918  0.2500  -1.9375   0.0000   0.2429
   5.500   0.6135   0.01131   0.00320   0.0009  0.0721  0.2500  -2.2090   0.0000   0.2421
   6.000   0.6672   0.01172   0.00359   0.0012  0.0588  0.2500  -2.4914   0.0000   0.2414
   6.500   0.7203   0.01220   0.00404   0.0017  0.0472  0.2500  -2.8141   0.0000   0.2405
   7.000   0.7734   0.01265   0.00450   0.0021  0.0407  0.2500  -3.1536   0.0000   0.2397
   7.500   0.8260   0.01312   0.00501   0.0026  0.0351  0.2500  -3.5043   0.0000   0.2388
   8.000   0.8776   0.01368   0.00558   0.0032  0.0298  0.2500  -3.8656   0.0000   0.2378
   8.500   0.9291   0.01421   0.00618   0.0038  0.0270  0.2500  -4.2588   0.0000   0.2368
   9.000   0.9798   0.01480   0.00682   0.0045  0.0243  0.2500  -4.6842   0.0000   0.2357
   9.500   1.0288   0.01554   0.00762   0.0054  0.0213  0.2500  -5.1134   0.0000   0.2344
  10.000   1.0782   0.01616   0.00834   0.0062  0.0201  0.2500  -5.5647   0.0000   0.2332
  10.500   1.1260   0.01689   0.00915   0.0072  0.0184  0.2500  -6.0230   0.0000   0.2319
  11.000   1.1716   0.01779   0.01011   0.0085  0.0167  0.2500  -6.4811   0.0000   0.2304
  11.500   1.2157   0.01874   0.01119   0.0100  0.0156  0.2500  -6.9408   0.0000   0.2287
  12.000   1.2590   0.01964   0.01223   0.0115  0.0150  0.2500  -7.4149   0.0000   0.2271
  12.500   1.2998   0.02066   0.01337   0.0133  0.0142  0.2500  -7.9198   0.0000   0.2252
  13.000   1.3373   0.02180   0.01464   0.0155  0.0135  0.2500  -8.4311   0.0000   0.2231
  13.500   1.3688   0.02310   0.01605   0.0185  0.0127  0.2500  -8.9191   0.0000   0.2203
  14.000   1.3904   0.02473   0.01782   0.0226  0.0119  0.2500  -9.3515   0.0000   0.2168
  14.500   1.4094   0.02681   0.02007   0.0261  0.0113  0.2500  -9.7677   0.0000   0.2136
  15.000   1.4285   0.02901   0.02244   0.0287  0.0111  0.2500  -10.1962   0.0000   0.2111
  15.500   1.4424   0.03191   0.02554   0.0307  0.0109  0.2500  -10.5868   0.0000   0.2089
  16.000   1.4512   0.03572   0.02955   0.0316  0.0106  0.2500  -10.9361   0.0000   0.2073
  16.500   1.4533   0.04079   0.03484   0.0311  0.0104  0.2500  -11.2255   0.0000   0.2066
  17.000   1.4478   0.04754   0.04182   0.0289  0.0102  0.2500  -11.4383   0.0000   0.2068
  17.500   1.4301   0.05655   0.05107   0.0249  0.0100  0.2500  -11.5272   0.0000   0.2081
  18.000   1.3965   0.06863   0.06342   0.0189  0.0099  0.2500  -11.4415   0.0000   0.2107
  18.500   1.3434   0.08429   0.07937   0.0109  0.0099  0.2500  -11.1295   0.0000   0.2148
  19.000   1.2710   0.10405   0.09943   0.0007  0.0100  0.2500  -10.5561   0.0000   0.2212
  19.500   1.1974   0.12515   0.12080  -0.0104  0.0100  0.2500  -9.8804   0.0000   0.2295
  20.000   1.1316   0.14587   0.14175  -0.0216  0.0100  0.2500  -9.1878   0.0000   0.2391


