xflr5 v6.42

 Calculated polar for: NACA_0012

 1 1 Reynolds number fixed          Mach number fixed         

 xtrf =   0.250 (top)        0.250 (bottom)
 Mach =   0.000     Re =     0.150 e 6     Ncrit =   5.000

  alpha     CL        CD       CDp       Cm    Top Xtr Bot Xtr   Cpmin    Chinge    XCp    
 ------- -------- --------- --------- -------- ------- ------- -------- --------- ---------
 -10.000  -0.9838   0.02973   0.01971  -0.0191  0.2500  0.0415  -4.8055   0.0000   0.2196
  -9.500  -0.9476   0.02775   0.01746  -0.0169  0.2500  0.0452  -4.4847   0.0000   0.2218
  -9.000  -0.9104   0.02579   0.01531  -0.0147  0.2500  0.0501  -4.1629   0.0000   0.2240
  -8.500  -0.8697   0.02427   0.01362  -0.0130  0.2500  0.0568  -3.8230   0.0000   0.2259
  -8.000  -0.8278   0.02272   0.01188  -0.0111  0.2500  0.0640  -3.5344   0.0000   0.2279
  -7.500  -0.7835   0.02145   0.01051  -0.0096  0.2500  0.0756  -3.2320   0.0000   0.2295
  -7.000  -0.7387   0.02017   0.00916  -0.0082  0.2500  0.0905  -2.9382   0.0000   0.2312
  -6.500  -0.6921   0.01908   0.00805  -0.0069  0.2500  0.1129  -2.6431   0.0000   0.2327
  -6.000  -0.6443   0.01810   0.00707  -0.0058  0.2500  0.1437  -2.3713   0.0000   0.2341
  -5.500  -0.5961   0.01716   0.00622  -0.0047  0.2500  0.1877  -2.1162   0.0000   0.2355
  -5.000  -0.5474   0.01631   0.00553  -0.0037  0.2500  0.2419  -1.8671   0.0000   0.2371
  -4.500  -0.4943   0.01591   0.00489  -0.0031  0.2500  0.2500  -1.6382   0.0000   0.2379
  -4.000  -0.4401   0.01565   0.00439  -0.0026  0.2500  0.2500  -1.4196   0.0000   0.2385
  -3.500  -0.3855   0.01545   0.00397  -0.0022  0.2500  0.2500  -1.2277   0.0000   0.2390
  -3.000  -0.3308   0.01528   0.00360  -0.0018  0.2500  0.2500  -1.0526   0.0000   0.2394
  -2.500  -0.2759   0.01514   0.00332  -0.0015  0.2500  0.2500  -0.8987   0.0000   0.2398
  -2.000  -0.2209   0.01504   0.00308  -0.0012  0.2500  0.2500  -0.7664   0.0000   0.2400
  -1.500  -0.1657   0.01495   0.00291  -0.0008  0.2500  0.2500  -0.6542   0.0000   0.2402
  -1.000  -0.1105   0.01490   0.00278  -0.0006  0.2500  0.2500  -0.5600   0.0000   0.2404
  -0.500  -0.0553   0.01486   0.00271  -0.0003  0.2500  0.2500  -0.4825   0.0000   0.2405
   0.000  -0.0000   0.01485   0.00268   0.0000  0.2500  0.2500  -0.4173   0.0000   0.4385
   0.500   0.0553   0.01486   0.00271   0.0003  0.2500  0.2500  -0.4825   0.0000   0.2405
   1.000   0.1105   0.01490   0.00278   0.0006  0.2500  0.2500  -0.5600   0.0000   0.2404
   1.500   0.1657   0.01495   0.00291   0.0008  0.2500  0.2500  -0.6542   0.0000   0.2402
   2.000   0.2209   0.01504   0.00308   0.0011  0.2500  0.2500  -0.7664   0.0000   0.2400
   2.500   0.2759   0.01514   0.00332   0.0015  0.2500  0.2500  -0.8987   0.0000   0.2398
   3.000   0.3308   0.01528   0.00360   0.0018  0.2500  0.2500  -1.0527   0.0000   0.2394
   3.500   0.3856   0.01545   0.00397   0.0022  0.2500  0.2500  -1.2278   0.0000   0.2390
   4.000   0.4401   0.01565   0.00439   0.0026  0.2500  0.2500  -1.4196   0.0000   0.2385
   4.500   0.4944   0.01591   0.00489   0.0031  0.2500  0.2500  -1.6383   0.0000   0.2380
   5.000   0.5474   0.01631   0.00553   0.0037  0.2418  0.2500  -1.8672   0.0000   0.2371
   5.500   0.5961   0.01716   0.00622   0.0047  0.1877  0.2500  -2.1163   0.0000   0.2356
   6.000   0.6443   0.01810   0.00707   0.0058  0.1437  0.2500  -2.3715   0.0000   0.2341
   6.500   0.6922   0.01908   0.00805   0.0069  0.1129  0.2500  -2.6434   0.0000   0.2327
   7.000   0.7389   0.02017   0.00916   0.0081  0.0905  0.2500  -2.9385   0.0000   0.2312
   7.500   0.7836   0.02145   0.01051   0.0096  0.0756  0.2500  -3.2324   0.0000   0.2295
   8.000   0.8279   0.02272   0.01188   0.0111  0.0640  0.2500  -3.5349   0.0000   0.2279
   8.500   0.8699   0.02427   0.01362   0.0129  0.0567  0.2500  -3.8237   0.0000   0.2259
   9.000   0.9106   0.02580   0.01531   0.0147  0.0501  0.2500  -4.1639   0.0000   0.2241
   9.500   0.9479   0.02775   0.01746   0.0168  0.0452  0.2500  -4.4859   0.0000   0.2219
  10.000   0.9842   0.02973   0.01971   0.0191  0.0415  0.2500  -4.8070   0.0000   0.2197
  10.500   1.0160   0.03186   0.02204   0.0215  0.0384  0.2500  -5.1272   0.0000   0.2173
  11.000   1.0425   0.03462   0.02506   0.0243  0.0356  0.2500  -5.4108   0.0000   0.2144
  11.500   1.0625   0.03724   0.02807   0.0278  0.0332  0.2500  -5.6684   0.0000   0.2109
  12.000   1.0759   0.04049   0.03165   0.0311  0.0315  0.2500  -5.8925   0.0000   0.2074
  12.500   1.0836   0.04426   0.03573   0.0335  0.0303  0.2500  -6.0938   0.0000   0.2046
  13.000   1.0848   0.04891   0.04065   0.0348  0.0293  0.2500  -6.2768   0.0000   0.2025
  13.500   1.0751   0.05543   0.04747   0.0345  0.0285  0.2500  -6.3767   0.0000   0.2016
  14.000   1.0514   0.06456   0.05703   0.0312  0.0280  0.2500  -6.3445   0.0000   0.2030
  14.500   1.0148   0.07703   0.06996   0.0241  0.0278  0.2500  -6.1784   0.0000   0.2079
  15.000   0.9585   0.09501   0.08836   0.0124  0.0279  0.2500  -5.7843   0.0000   0.2177
  16.000   0.7398   0.17167   0.16528  -0.0284  0.0274  0.2500  -2.9228   0.0000   0.2703
  16.500   0.7344   0.18528   0.17889  -0.0348  0.0256  0.2500  -2.6172   0.0000   0.2791
  17.000   0.7387   0.19548   0.18909  -0.0396  0.0251  0.2500  -2.4685   0.0000   0.2849
  17.500   0.7458   0.20501   0.19864  -0.0442  0.0249  0.2500  -2.3432   0.0000   0.2900
  18.000   0.7551   0.21408   0.20775  -0.0486  0.0252  0.2500  -2.2332   0.0000   0.2946
  18.500   0.7662   0.22268   0.21637  -0.0529  0.0259  0.2500  -2.1431   0.0000   0.2986
  19.000   0.7785   0.23075   0.22447  -0.0573  0.0246  0.2500  -2.0916   0.0000   0.3026
  19.500   0.7926   0.23798   0.23173  -0.0614  0.0233  0.2500  -2.1114   0.0000   0.3056
  20.000   0.8049   0.24694   0.24071  -0.0660  0.0254  0.2500  -2.0149   0.0000   0.3095


