xflr5 v6.42

 Calculated polar for: NACA_0012

 1 1 Reynolds number fixed          Mach number fixed         

 xtrf =   0.250 (top)        0.250 (bottom)
 Mach =   0.000     Re =     0.007 e 6     Ncrit =   5.000

  alpha     CL        CD       CDp       Cm    Top Xtr Bot Xtr   Cpmin    Chinge    XCp    
 ------- -------- --------- --------- -------- ------- ------- -------- --------- ---------
 -10.000  -0.6085   0.11627   0.09455  -0.0011  0.2500  0.2500  -2.0157   0.0000   0.2380
  -9.500  -0.6047   0.10647   0.08466  -0.0045  0.2500  0.2500  -2.0434   0.0000   0.2326
  -9.000  -0.5996   0.09674   0.07479  -0.0079  0.2500  0.2500  -2.0666   0.0000   0.2272
  -8.500  -0.5921   0.08734   0.06516  -0.0112  0.2500  0.2500  -2.0800   0.0000   0.2219
  -8.000  -0.5797   0.07898   0.05646  -0.0136  0.2500  0.2500  -2.0593   0.0000   0.2177
  -7.500  -0.5605   0.07231   0.04929  -0.0147  0.2500  0.2500  -1.9924   0.0000   0.2152
  -7.000  -0.5355   0.06713   0.04339  -0.0149  0.2500  0.2500  -1.8864   0.0000   0.2139
  -6.500  -0.5069   0.06301   0.03858  -0.0146  0.2500  0.2500  -1.7646   0.0000   0.2132
  -6.000  -0.4752   0.05964   0.03446  -0.0141  0.2500  0.2500  -1.6348   0.0000   0.2126
  -5.500  -0.4414   0.05701   0.03096  -0.0133  0.2500  0.2500  -1.4933   0.0000   0.2125
  -5.000  -0.4064   0.05480   0.02800  -0.0123  0.2500  0.2500  -1.3585   0.0000   0.2127
  -4.500  -0.3703   0.05294   0.02544  -0.0112  0.2500  0.2500  -1.2253   0.0000   0.2130
  -4.000  -0.3329   0.05137   0.02316  -0.0100  0.2500  0.2500  -1.0993   0.0000   0.2134
  -3.500  -0.2940   0.05007   0.02128  -0.0088  0.2500  0.2500  -0.9775   0.0000   0.2138
  -3.000  -0.2540   0.04900   0.01969  -0.0075  0.2500  0.2500  -0.8679   0.0000   0.2141
  -2.500  -0.2130   0.04814   0.01833  -0.0063  0.2500  0.2500  -0.7672   0.0000   0.2145
  -2.000  -0.1713   0.04746   0.01728  -0.0050  0.2500  0.2500  -0.6766   0.0000   0.2148
  -1.500  -0.1289   0.04694   0.01647  -0.0038  0.2500  0.2500  -0.5968   0.0000   0.2150
  -1.000  -0.0862   0.04658   0.01587  -0.0025  0.2500  0.2500  -0.5273   0.0000   0.2151
  -0.500  -0.0431   0.04637   0.01553  -0.0013  0.2500  0.2500  -0.4670   0.0000   0.2151
   0.000   0.0000   0.04630   0.01542  -0.0000  0.2500  0.2500  -0.4144   0.0000   0.2966
   0.500   0.0431   0.04637   0.01553   0.0013  0.2500  0.2500  -0.4670   0.0000   0.2151
   1.000   0.0862   0.04658   0.01587   0.0025  0.2500  0.2500  -0.5273   0.0000   0.2151
   1.500   0.1289   0.04694   0.01647   0.0038  0.2500  0.2500  -0.5968   0.0000   0.2150
   2.000   0.1713   0.04745   0.01727   0.0050  0.2500  0.2500  -0.6767   0.0000   0.2148
   2.500   0.2130   0.04813   0.01833   0.0063  0.2500  0.2500  -0.7672   0.0000   0.2145
   3.000   0.2540   0.04900   0.01969   0.0075  0.2500  0.2500  -0.8680   0.0000   0.2142
   3.500   0.2941   0.05007   0.02127   0.0088  0.2500  0.2500  -0.9777   0.0000   0.2139
   4.000   0.3330   0.05137   0.02315   0.0100  0.2500  0.2500  -1.0995   0.0000   0.2135
   4.500   0.3705   0.05293   0.02544   0.0112  0.2500  0.2500  -1.2256   0.0000   0.2131
   5.000   0.4067   0.05480   0.02800   0.0122  0.2500  0.2500  -1.3590   0.0000   0.2128
   5.500   0.4417   0.05701   0.03095   0.0132  0.2500  0.2500  -1.4940   0.0000   0.2127
   6.000   0.4756   0.05964   0.03445   0.0140  0.2500  0.2500  -1.6356   0.0000   0.2128
   6.500   0.5074   0.06300   0.03857   0.0145  0.2500  0.2500  -1.7657   0.0000   0.2133
   7.000   0.5361   0.06712   0.04338   0.0148  0.2500  0.2500  -1.8878   0.0000   0.2140
   7.500   0.5612   0.07230   0.04928   0.0146  0.2500  0.2500  -1.9941   0.0000   0.2154
   8.000   0.5804   0.07898   0.05646   0.0135  0.2500  0.2500  -2.0611   0.0000   0.2178
   8.500   0.5930   0.08734   0.06517   0.0111  0.2500  0.2500  -2.0817   0.0000   0.2221
   9.000   0.6006   0.09676   0.07481   0.0078  0.2500  0.2500  -2.0683   0.0000   0.2274
   9.500   0.6057   0.10650   0.08469   0.0044  0.2500  0.2500  -2.0453   0.0000   0.2328
  10.000   0.6097   0.11631   0.09460   0.0009  0.2500  0.2500  -2.0176   0.0000   0.2382
  10.500   0.6133   0.12600   0.10435  -0.0026  0.2500  0.2500  -1.9849   0.0000   0.2435
  11.000   0.6171   0.13547   0.11387  -0.0060  0.2500  0.2500  -1.9502   0.0000   0.2486
  11.500   0.6212   0.14467   0.12310  -0.0092  0.2500  0.2500  -1.9147   0.0000   0.2534
  12.000   0.6258   0.15360   0.13213  -0.0124  0.2500  0.2500  -1.8793   0.0000   0.2579
  12.500   0.6312   0.16227   0.14083  -0.0155  0.2500  0.2500  -1.8446   0.0000   0.2622
  13.000   0.6374   0.17072   0.14930  -0.0185  0.2500  0.2500  -1.8123   0.0000   0.2663
  13.500   0.6444   0.17894   0.15755  -0.0216  0.2500  0.2500  -1.7954   0.0000   0.2702
  14.000   0.6521   0.18693   0.16556  -0.0246  0.2500  0.2500  -1.7788   0.0000   0.2739
  14.500   0.6606   0.19470   0.17336  -0.0276  0.2500  0.2500  -1.7625   0.0000   0.2775
  15.000   0.6700   0.20233   0.18102  -0.0307  0.2500  0.2500  -1.7465   0.0000   0.2810
  15.500   0.6802   0.20986   0.18858  -0.0338  0.2500  0.2500  -1.7305   0.0000   0.2843
  16.000   0.6913   0.21732   0.19616  -0.0370  0.2500  0.2500  -1.7143   0.0000   0.2875
  16.500   0.7031   0.22473   0.20361  -0.0403  0.2500  0.2500  -1.6979   0.0000   0.2907
  17.000   0.7155   0.23209   0.21102  -0.0436  0.2500  0.2500  -1.6850   0.0000   0.2937
  17.500   0.7284   0.23941   0.21839  -0.0470  0.2500  0.2500  -1.6874   0.0000   0.2967
  18.000   0.7418   0.24669   0.22572  -0.0505  0.2500  0.2500  -1.6886   0.0000   0.2995
  18.500   0.7555   0.25393   0.23301  -0.0540  0.2500  0.2500  -1.6885   0.0000   0.3023
  19.500   0.7840   0.26835   0.24763  -0.0613  0.2500  0.2500  -1.6839   0.0000   0.3076
  20.000   0.7986   0.27553   0.25488  -0.0650  0.2500  0.2500  -1.6795   0.0000   0.3101


