xflr5 v6.42

 Calculated polar for: NACA_6412

 1 1 Reynolds number fixed          Mach number fixed         

 xtrf =   0.250 (top)        0.250 (bottom)
 Mach =   0.000     Re =     0.100 e 6     Ncrit =   5.000

  alpha     CL        CD       CDp       Cm    Top Xtr Bot Xtr   Cpmin    Chinge    XCp    
 ------- -------- --------- --------- -------- ------- ------- -------- --------- ---------
 -10.000  -0.1607   0.11557   0.10685  -0.0790  0.2500  0.0540  -1.7149   0.0000  -0.2749
  -9.500  -0.1385   0.10446   0.09566  -0.0782  0.2500  0.0410  -1.7275   0.0000  -0.3527
  -9.000  -0.1301   0.09790   0.08913  -0.0815  0.2500  0.0412  -1.7941   0.0000  -0.4142
  -8.000  -0.1195   0.08370   0.07505  -0.0897  0.2500  0.0420  -2.0151   0.0000  -0.5375
  -7.500  -0.1101   0.07729   0.06866  -0.0925  0.2500  0.0414  -2.0658   0.0000  -0.6266
  -7.000  -0.0960   0.06917   0.06054  -0.0997  0.2500  0.0412  -2.1928   0.0000  -0.8268
  -6.500  -0.0743   0.05818   0.04943  -0.1113  0.2500  0.0414  -2.4245   0.0000  -1.2960
  -6.000  -0.0409   0.04685   0.03775  -0.1223  0.2500  0.0440  -2.5888   0.0000  -2.8202
  -5.500   0.0023   0.03969   0.03008  -0.1278  0.2500  0.0477  -2.5434   0.0000  56.4569
  -5.000   0.0520   0.03049   0.01954  -0.1332  0.2500  0.0513  -2.6137   0.0000   2.8639
  -4.000   0.1570   0.02535   0.01325  -0.1343  0.2500  0.0641  -2.1734   0.0000   1.1201
  -3.500   0.2107   0.02351   0.01096  -0.1344  0.2500  0.0727  -1.9573   0.0000   0.8969
  -3.000   0.2642   0.02249   0.00970  -0.1341  0.2500  0.0837  -1.7106   0.0000   0.7637
  -2.500   0.3176   0.02159   0.00864  -0.1339  0.2500  0.0985  -1.4703   0.0000   0.6754
  -2.000   0.3710   0.02085   0.00775  -0.1335  0.2500  0.1168  -1.2673   0.0000   0.6121
  -1.500   0.4240   0.02036   0.00722  -0.1331  0.2500  0.1420  -1.0598   0.0000   0.5649
  -1.000   0.4767   0.02003   0.00691  -0.1326  0.2500  0.1766  -0.8644   0.0000   0.5282
  -0.500   0.5289   0.01979   0.00670  -0.1321  0.2500  0.2219  -0.9061   0.0000   0.4987
   0.000   0.5813   0.01967   0.00649  -0.1314  0.2500  0.2500  -0.9481   0.0000   0.4744
   0.500   0.6339   0.01979   0.00639  -0.1308  0.2500  0.2500  -0.9904   0.0000   0.4539
   1.000   0.6858   0.02001   0.00644  -0.1301  0.2500  0.2500  -1.0325   0.0000   0.4366
   1.500   0.7370   0.02027   0.00659  -0.1293  0.2500  0.2500  -1.0775   0.0000   0.4217
   2.000   0.7875   0.02058   0.00682  -0.1284  0.2500  0.2500  -1.1227   0.0000   0.4087
   2.500   0.8374   0.02092   0.00712  -0.1275  0.2500  0.2500  -1.1678   0.0000   0.3973
   3.000   0.8864   0.02131   0.00751  -0.1264  0.2500  0.2500  -1.2122   0.0000   0.3870
   3.500   0.9347   0.02173   0.00796  -0.1253  0.2500  0.2500  -1.2564   0.0000   0.3778
   4.000   0.9819   0.02219   0.00850  -0.1240  0.2500  0.2500  -1.3033   0.0000   0.3694
   4.500   1.0280   0.02269   0.00909  -0.1225  0.2500  0.2500  -1.3522   0.0000   0.3617
   5.000   1.0722   0.02324   0.00975  -0.1208  0.2500  0.2500  -1.4007   0.0000   0.3545
   5.500   1.1143   0.02383   0.01052  -0.1187  0.2500  0.2500  -1.4513   0.0000   0.3477
   6.000   1.1565   0.02450   0.01136  -0.1168  0.2500  0.2500  -1.5056   0.0000   0.3415
   6.500   1.1977   0.02526   0.01231  -0.1148  0.2500  0.2500  -1.5628   0.0000   0.3356
   7.000   1.2379   0.02608   0.01340  -0.1127  0.2500  0.2500  -1.6661   0.0000   0.3301
   7.500   1.2765   0.02701   0.01458  -0.1105  0.2500  0.2500  -1.8420   0.0000   0.3249
   8.000   1.3138   0.02803   0.01588  -0.1082  0.2500  0.2500  -2.0379   0.0000   0.3199
   8.500   1.3493   0.02917   0.01738  -0.1058  0.2500  0.2500  -2.2555   0.0000   0.3152
   9.000   1.3831   0.03045   0.01900  -0.1034  0.2500  0.2500  -2.4757   0.0000   0.3107
   9.500   1.4149   0.03189   0.02081  -0.1008  0.2500  0.2500  -2.7193   0.0000   0.3064
  10.000   1.4447   0.03352   0.02288  -0.0981  0.2500  0.2500  -2.9637   0.0000   0.3022
  10.500   1.4722   0.03537   0.02516  -0.0954  0.2500  0.2500  -3.2166   0.0000   0.2982
  11.000   1.4973   0.03746   0.02771  -0.0927  0.2500  0.2500  -3.4824   0.0000   0.2944
  11.500   1.5200   0.03984   0.03062  -0.0899  0.2500  0.2500  -3.7437   0.0000   0.2907
  12.000   1.5402   0.04252   0.03385  -0.0872  0.2500  0.2500  -3.9983   0.0000   0.2872
  12.500   1.5237   0.04837   0.03971  -0.0828  0.2130  0.2500  -4.1171   0.0000   0.2839
  13.000   1.4933   0.05643   0.04765  -0.0794  0.1723  0.2500  -4.1736   0.0000   0.2817
  13.500   1.4628   0.06548   0.05664  -0.0775  0.1378  0.2500  -4.2185   0.0000   0.2804
  14.000   1.4338   0.07511   0.06623  -0.0767  0.1122  0.2500  -4.2585   0.0000   0.2799
  14.500   1.4107   0.08439   0.07555  -0.0766  0.0932  0.2500  -4.3192   0.0000   0.2796
  15.000   1.3952   0.09294   0.08427  -0.0768  0.0794  0.2500  -4.4159   0.0000   0.2794
  15.500   1.3820   0.10128   0.09269  -0.0774  0.0694  0.2500  -4.5168   0.0000   0.2792
  16.000   1.3741   0.10892   0.10049  -0.0781  0.0608  0.2500  -4.6424   0.0000   0.2790
  16.500   1.3705   0.11581   0.10748  -0.0787  0.0543  0.2500  -4.7840   0.0000   0.2785
  17.000   1.3735   0.12180   0.11371  -0.0792  0.0491  0.2500  -4.9546   0.0000   0.2776
  17.500   1.3746   0.12797   0.11994  -0.0802  0.0446  0.2500  -5.1219   0.0000   0.2771
  18.000   1.3806   0.13342   0.12563  -0.0809  0.0406  0.2500  -5.3025   0.0000   0.2762
  18.500   1.3848   0.13938   0.13190  -0.0823  0.0374  0.2500  -5.4668   0.0000   0.2759
  19.000   1.3890   0.14529   0.13800  -0.0839  0.0350  0.2500  -5.6317   0.0000   0.2756
  19.500   1.3969   0.15004   0.14280  -0.0848  0.0327  0.2500  -5.8506   0.0000   0.2747
  20.000   1.3884   0.15949   0.15273  -0.0894  0.0312  0.2500  -5.9093   0.0000   0.2771


