xflr5 v6.42

 Calculated polar for: NACA_6412

 1 1 Reynolds number fixed          Mach number fixed         

 xtrf =   0.250 (top)        0.250 (bottom)
 Mach =   0.000     Re =     2.000 e 6     Ncrit =   5.000

  alpha     CL        CD       CDp       Cm    Top Xtr Bot Xtr   Cpmin    Chinge    XCp    
 ------- -------- --------- --------- -------- ------- ------- -------- --------- ---------
 -10.000  -0.4518   0.01389   0.00746  -0.1453  0.2500  0.0113  -8.2597   0.0000  -0.0905
  -9.500  -0.3970   0.01323   0.00670  -0.1454  0.2500  0.0120  -7.6712   0.0000  -0.1360
  -9.000  -0.3416   0.01269   0.00606  -0.1455  0.2500  0.0128  -7.0935   0.0000  -0.1970
  -8.500  -0.2858   0.01222   0.00550  -0.1457  0.2500  0.0135  -6.5304   0.0000  -0.2826
  -8.000  -0.2297   0.01183   0.00501  -0.1458  0.2500  0.0140  -5.9828   0.0000  -0.4109
  -7.500  -0.1734   0.01149   0.00458  -0.1460  0.2500  0.0143  -5.4516   0.0000  -0.6235
  -7.000  -0.1170   0.01109   0.00409  -0.1461  0.2500  0.0154  -4.9497   0.0000  -1.0412
  -6.500  -0.0605   0.01076   0.00370  -0.1463  0.2500  0.0169  -4.4596   0.0000  -2.2435
  -6.000  -0.0038   0.01050   0.00339  -0.1465  0.2500  0.0182  -3.9863   0.0000  -39.7594
  -5.500   0.0531   0.01030   0.00313  -0.1467  0.2500  0.0192  -3.5313   0.0000   3.0813
  -5.000   0.1099   0.01007   0.00286  -0.1468  0.2500  0.0219  -3.1007   0.0000   1.6153
  -4.500   0.1669   0.00989   0.00266  -0.1470  0.2500  0.0244  -2.7326   0.0000   1.1485
  -4.000   0.2238   0.00976   0.00249  -0.1472  0.2500  0.0267  -2.3831   0.0000   0.9189
  -3.500   0.2807   0.00961   0.00235  -0.1474  0.2500  0.0316  -2.0492   0.0000   0.7827
  -3.000   0.3376   0.00952   0.00223  -0.1476  0.2500  0.0355  -1.7318   0.0000   0.6922
  -2.500   0.3945   0.00943   0.00215  -0.1478  0.2500  0.0413  -1.4639   0.0000   0.6280
  -2.000   0.4513   0.00936   0.00209  -0.1480  0.2500  0.0501  -1.2126   0.0000   0.5799
  -1.500   0.5080   0.00932   0.00206  -0.1482  0.2500  0.0598  -0.9742   0.0000   0.5425
  -1.000   0.5646   0.00928   0.00206  -0.1483  0.2500  0.0721  -0.9007   0.0000   0.5127
  -0.500   0.6211   0.00926   0.00208  -0.1485  0.2500  0.0879  -0.9424   0.0000   0.4882
   0.000   0.6774   0.00925   0.00212  -0.1487  0.2500  0.1088  -0.9849   0.0000   0.4678
   0.500   0.7336   0.00926   0.00219  -0.1488  0.2500  0.1335  -1.0340   0.0000   0.4506
   1.000   0.7897   0.00928   0.00227  -0.1490  0.2500  0.1610  -1.0861   0.0000   0.4357
   1.500   0.8455   0.00933   0.00238  -0.1491  0.2500  0.1902  -1.1384   0.0000   0.4227
   2.000   0.9011   0.00936   0.00251  -0.1492  0.2500  0.2346  -1.1910   0.0000   0.4113
   2.500   0.9565   0.00946   0.00265  -0.1492  0.2500  0.2500  -1.2438   0.0000   0.4012
   3.000   1.0115   0.00959   0.00279  -0.1492  0.2500  0.2500  -1.2969   0.0000   0.3920
   3.500   1.0662   0.00973   0.00295  -0.1491  0.2500  0.2500  -1.3500   0.0000   0.3838
   4.000   1.1205   0.00988   0.00312  -0.1490  0.2500  0.2500  -1.4033   0.0000   0.3762
   4.500   1.1744   0.01004   0.00331  -0.1488  0.2500  0.2500  -1.4590   0.0000   0.3693
   5.000   1.2279   0.01021   0.00352  -0.1486  0.2500  0.2500  -1.5179   0.0000   0.3629
   5.500   1.2809   0.01039   0.00375  -0.1482  0.2500  0.2500  -1.5828   0.0000   0.3570
   6.000   1.3334   0.01057   0.00400  -0.1479  0.2500  0.2500  -1.6532   0.0000   0.3515
   6.500   1.3853   0.01077   0.00426  -0.1474  0.2500  0.2500  -1.8568   0.0000   0.3463
   7.000   1.4316   0.01126   0.00471  -0.1460  0.2307  0.2500  -2.0864   0.0000   0.3411
   7.500   1.4640   0.01248   0.00562  -0.1421  0.1735  0.2500  -2.3017   0.0000   0.3354
   8.000   1.4867   0.01374   0.00662  -0.1363  0.1232  0.2500  -2.5045   0.0000   0.3293
   8.500   1.5153   0.01496   0.00767  -0.1319  0.0887  0.2500  -2.7462   0.0000   0.3239
   9.000   1.5430   0.01621   0.00881  -0.1276  0.0643  0.2500  -2.9968   0.0000   0.3187
   9.500   1.5695   0.01755   0.01007  -0.1233  0.0462  0.2500  -3.2742   0.0000   0.3138
  10.000   1.5981   0.01881   0.01132  -0.1196  0.0366  0.2500  -3.5685   0.0000   0.3092
  10.500   1.6258   0.02020   0.01272  -0.1161  0.0291  0.2500  -3.8687   0.0000   0.3048
  11.000   1.6512   0.02176   0.01431  -0.1124  0.0241  0.2500  -4.1688   0.0000   0.3006
  11.500   1.6762   0.02346   0.01605  -0.1090  0.0213  0.2500  -4.4760   0.0000   0.2966
  12.000   1.6979   0.02548   0.01813  -0.1055  0.0180  0.2500  -4.7959   0.0000   0.2928
  12.500   1.7194   0.02758   0.02031  -0.1023  0.0166  0.2500  -5.1360   0.0000   0.2891
  13.000   1.7358   0.03023   0.02302  -0.0989  0.0144  0.2500  -5.4606   0.0000   0.2856
  13.500   1.7516   0.03310   0.02597  -0.0959  0.0128  0.2500  -5.7884   0.0000   0.2823
  14.000   1.7659   0.03624   0.02922  -0.0931  0.0120  0.2500  -6.1162   0.0000   0.2792
  14.500   1.7763   0.03994   0.03302  -0.0905  0.0110  0.2500  -6.4299   0.0000   0.2764
  15.000   1.7837   0.04418   0.03735  -0.0882  0.0100  0.2500  -6.7313   0.0000   0.2737
  15.500   1.7894   0.04878   0.04208  -0.0863  0.0091  0.2500  -7.0261   0.0000   0.2713
  16.000   1.7944   0.05356   0.04698  -0.0846  0.0088  0.2500  -7.3262   0.0000   0.2690
  16.500   1.7966   0.05884   0.05241  -0.0833  0.0085  0.2500  -7.6373   0.0000   0.2670
  17.000   1.7960   0.06464   0.05834  -0.0822  0.0081  0.2500  -7.9336   0.0000   0.2652
  17.500   1.7915   0.07103   0.06486  -0.0815  0.0075  0.2500  -8.2067   0.0000   0.2636
  18.000   1.7829   0.07798   0.07194  -0.0810  0.0070  0.2500  -8.4525   0.0000   0.2623
  18.500   1.7736   0.08520   0.07931  -0.0809  0.0064  0.2500  -8.6906   0.0000   0.2612
  19.000   1.7639   0.09259   0.08685  -0.0811  0.0060  0.2500  -8.9228   0.0000   0.2602
  19.500   1.7568   0.09969   0.09409  -0.0817  0.0059  0.2500  -9.1761   0.0000   0.2594
  20.000   1.7468   0.10719   0.10175  -0.0826  0.0058  0.2500  -9.4060   0.0000   0.2588


