xflr5 v6.42

 Calculated polar for: NACA_6412

 1 1 Reynolds number fixed          Mach number fixed         

 xtrf =   0.250 (top)        0.250 (bottom)
 Mach =   0.000     Re =     1.500 e 6     Ncrit =   5.000

  alpha     CL        CD       CDp       Cm    Top Xtr Bot Xtr   Cpmin    Chinge    XCp    
 ------- -------- --------- --------- -------- ------- ------- -------- --------- ---------
 -10.000  -0.4510   0.01519   0.00865  -0.1448  0.2500  0.0122  -8.1870   0.0000  -0.0899
  -9.500  -0.3967   0.01447   0.00778  -0.1449  0.2500  0.0128  -7.6076   0.0000  -0.1350
  -9.000  -0.3418   0.01384   0.00702  -0.1450  0.2500  0.0134  -7.0410   0.0000  -0.1952
  -8.500  -0.2865   0.01330   0.00635  -0.1451  0.2500  0.0139  -6.4873   0.0000  -0.2794
  -8.000  -0.2308   0.01284   0.00577  -0.1453  0.2500  0.0143  -5.9467   0.0000  -0.4052
  -7.500  -0.1752   0.01227   0.00508  -0.1454  0.2500  0.0155  -5.4390   0.0000  -0.6111
  -7.000  -0.1192   0.01185   0.00458  -0.1455  0.2500  0.0167  -4.9357   0.0000  -1.0130
  -6.500  -0.0629   0.01151   0.00416  -0.1457  0.2500  0.0179  -4.4478   0.0000  -2.1391
  -6.000  -0.0064   0.01124   0.00380  -0.1458  0.2500  0.0190  -3.9778   0.0000  -23.2436
  -5.500   0.0501   0.01095   0.00345  -0.1460  0.2500  0.0210  -3.5305   0.0000   3.2345
  -5.000   0.1067   0.01070   0.00317  -0.1461  0.2500  0.0234  -3.1005   0.0000   1.6498
  -4.500   0.1634   0.01053   0.00294  -0.1463  0.2500  0.0252  -2.7335   0.0000   1.1626
  -4.000   0.2201   0.01034   0.00272  -0.1464  0.2500  0.0294  -2.3874   0.0000   0.9267
  -3.500   0.2768   0.01022   0.00257  -0.1466  0.2500  0.0326  -2.0543   0.0000   0.7872
  -3.000   0.3335   0.01008   0.00243  -0.1467  0.2500  0.0385  -1.7390   0.0000   0.6952
  -2.500   0.3901   0.01001   0.00233  -0.1469  0.2500  0.0436  -1.4705   0.0000   0.6299
  -2.000   0.4466   0.00992   0.00227  -0.1470  0.2500  0.0534  -1.2196   0.0000   0.5812
  -1.500   0.5030   0.00985   0.00223  -0.1472  0.2500  0.0654  -0.9821   0.0000   0.5435
  -1.000   0.5594   0.00982   0.00222  -0.1473  0.2500  0.0799  -0.8962   0.0000   0.5133
  -0.500   0.6156   0.00980   0.00224  -0.1474  0.2500  0.0985  -0.9377   0.0000   0.4886
   0.000   0.6717   0.00980   0.00229  -0.1475  0.2500  0.1178  -0.9839   0.0000   0.4680
   0.500   0.7276   0.00981   0.00236  -0.1476  0.2500  0.1458  -1.0317   0.0000   0.4506
   1.000   0.7833   0.00983   0.00246  -0.1477  0.2500  0.1778  -1.0829   0.0000   0.4356
   1.500   0.8388   0.00986   0.00258  -0.1478  0.2500  0.2139  -1.1351   0.0000   0.4226
   2.000   0.8941   0.00992   0.00272  -0.1478  0.2500  0.2500  -1.1875   0.0000   0.4111
   2.500   0.9490   0.01006   0.00285  -0.1477  0.2500  0.2500  -1.2400   0.0000   0.4008
   3.000   1.0036   0.01020   0.00300  -0.1476  0.2500  0.2500  -1.2927   0.0000   0.3916
   3.500   1.0579   0.01036   0.00318  -0.1475  0.2500  0.2500  -1.3456   0.0000   0.3833
   4.000   1.1117   0.01052   0.00337  -0.1472  0.2500  0.2500  -1.3985   0.0000   0.3757
   4.500   1.1651   0.01070   0.00358  -0.1470  0.2500  0.2500  -1.4531   0.0000   0.3688
   5.000   1.2180   0.01088   0.00381  -0.1466  0.2500  0.2500  -1.5111   0.0000   0.3623
   5.500   1.2703   0.01108   0.00406  -0.1462  0.2500  0.2500  -1.5749   0.0000   0.3563
   6.000   1.3220   0.01128   0.00434  -0.1456  0.2500  0.2500  -1.6426   0.0000   0.3507
   6.500   1.3731   0.01150   0.00464  -0.1450  0.2500  0.2500  -1.8312   0.0000   0.3455
   7.000   1.4233   0.01173   0.00495  -0.1443  0.2500  0.2500  -2.0659   0.0000   0.3405
   7.500   1.4644   0.01244   0.00557  -0.1419  0.2237  0.2500  -2.3024   0.0000   0.3353
   8.000   1.4876   0.01370   0.00656  -0.1363  0.1706  0.2500  -2.5070   0.0000   0.3292
   8.500   1.5103   0.01526   0.00785  -0.1309  0.1195  0.2500  -2.7315   0.0000   0.3235
   9.000   1.5355   0.01667   0.00912  -0.1263  0.0864  0.2500  -2.9703   0.0000   0.3183
   9.500   1.5577   0.01828   0.01060  -0.1215  0.0602  0.2500  -3.2315   0.0000   0.3132
  10.000   1.5823   0.01982   0.01210  -0.1173  0.0451  0.2500  -3.5090   0.0000   0.3085
  10.500   1.6074   0.02141   0.01369  -0.1135  0.0362  0.2500  -3.7971   0.0000   0.3041
  11.000   1.6312   0.02315   0.01547  -0.1098  0.0293  0.2500  -4.0885   0.0000   0.2999
  11.500   1.6534   0.02513   0.01748  -0.1062  0.0243  0.2500  -4.3807   0.0000   0.2959
  12.000   1.6753   0.02720   0.01962  -0.1030  0.0218  0.2500  -4.6897   0.0000   0.2921
  12.500   1.6920   0.02979   0.02228  -0.0995  0.0186  0.2500  -5.0030   0.0000   0.2884
  13.000   1.7100   0.03245   0.02505  -0.0965  0.0171  0.2500  -5.3293   0.0000   0.2851
  13.500   1.7232   0.03565   0.02834  -0.0936  0.0154  0.2500  -5.6403   0.0000   0.2819
  14.000   1.7317   0.03949   0.03226  -0.0907  0.0133  0.2500  -5.9326   0.0000   0.2789
  14.500   1.7425   0.04338   0.03629  -0.0885  0.0125  0.2500  -6.2412   0.0000   0.2762
  15.000   1.7500   0.04779   0.04082  -0.0866  0.0118  0.2500  -6.5376   0.0000   0.2737
  15.500   1.7534   0.05276   0.04592  -0.0848  0.0109  0.2500  -6.8149   0.0000   0.2714
  16.000   1.7533   0.05830   0.05159  -0.0833  0.0101  0.2500  -7.0751   0.0000   0.2694
  16.500   1.7512   0.06430   0.05773  -0.0822  0.0092  0.2500  -7.3334   0.0000   0.2676
  17.000   1.7499   0.07035   0.06394  -0.0815  0.0089  0.2500  -7.6154   0.0000   0.2660
  17.500   1.7463   0.07673   0.07048  -0.0810  0.0087  0.2500  -7.8842   0.0000   0.2645
  18.000   1.7402   0.08354   0.07744  -0.0808  0.0083  0.2500  -8.1371   0.0000   0.2633
  18.500   1.7325   0.09071   0.08477  -0.0810  0.0079  0.2500  -8.3795   0.0000   0.2623
  19.000   1.7231   0.09821   0.09241  -0.0816  0.0075  0.2500  -8.6081   0.0000   0.2616
  19.500   1.7119   0.10598   0.10033  -0.0825  0.0070  0.2500  -8.8201   0.0000   0.2611
  20.000   1.6996   0.11394   0.10843  -0.0837  0.0066  0.2500  -9.0189   0.0000   0.2608


