xflr5 v6.42

 Calculated polar for: NACA_0012

 1 1 Reynolds number fixed          Mach number fixed         

 xtrf =   0.250 (top)        0.250 (bottom)
 Mach =   0.000     Re =     0.800 e 6     Ncrit =   5.000

  alpha     CL        CD       CDp       Cm    Top Xtr Bot Xtr   Cpmin    Chinge    XCp    
 ------- -------- --------- --------- -------- ------- ------- -------- --------- ---------
 -10.000  -1.0701   0.01717   0.00911  -0.0074  0.2500  0.0211  -5.5066   0.0000   0.2321
  -9.500  -1.0231   0.01631   0.00815  -0.0062  0.2500  0.0235  -5.0760   0.0000   0.2335
  -9.000  -0.9743   0.01559   0.00738  -0.0053  0.2500  0.0261  -4.6468   0.0000   0.2348
  -8.500  -0.9238   0.01501   0.00669  -0.0046  0.2500  0.0281  -4.2254   0.0000   0.2359
  -8.000  -0.8737   0.01433   0.00598  -0.0038  0.2500  0.0328  -3.8424   0.0000   0.2370
  -7.500  -0.8219   0.01381   0.00540  -0.0032  0.2500  0.0369  -3.4821   0.0000   0.2380
  -7.000  -0.7703   0.01323   0.00482  -0.0026  0.2500  0.0442  -3.1372   0.0000   0.2390
  -6.500  -0.7177   0.01275   0.00431  -0.0021  0.2500  0.0522  -2.8009   0.0000   0.2398
  -6.000  -0.6647   0.01229   0.00385  -0.0017  0.2500  0.0632  -2.4809   0.0000   0.2407
  -5.500  -0.6115   0.01183   0.00342  -0.0013  0.2500  0.0778  -2.2006   0.0000   0.2415
  -5.000  -0.5580   0.01138   0.00303  -0.0009  0.2500  0.1002  -1.9309   0.0000   0.2423
  -4.500  -0.5046   0.01091   0.00267  -0.0005  0.2500  0.1299  -1.6842   0.0000   0.2432
  -4.000  -0.4505   0.01050   0.00236  -0.0002  0.2500  0.1638  -1.4604   0.0000   0.2440
  -3.500  -0.3966   0.01007   0.00209   0.0001  0.2500  0.2080  -1.2597   0.0000   0.2450
  -3.000  -0.3420   0.00972   0.00187   0.0003  0.2500  0.2500  -1.0771   0.0000   0.2459
  -2.500  -0.2851   0.00966   0.00174   0.0003  0.2500  0.2500  -0.9148   0.0000   0.2462
  -2.000  -0.2282   0.00961   0.00162   0.0002  0.2500  0.2500  -0.7765   0.0000   0.2464
  -1.500  -0.1712   0.00958   0.00154   0.0002  0.2500  0.2500  -0.6599   0.0000   0.2466
  -1.000  -0.1142   0.00955   0.00148   0.0001  0.2500  0.2500  -0.5624   0.0000   0.2467
  -0.500  -0.0571   0.00954   0.00145   0.0001  0.2500  0.2500  -0.4818   0.0000   0.2467
   0.000   0.0000   0.00953   0.00144  -0.0000  0.2500  0.2500  -0.4150   0.0000   0.4945
   0.500   0.0571   0.00954   0.00145  -0.0001  0.2500  0.2500  -0.4818   0.0000   0.2467
   1.000   0.1142   0.00955   0.00148  -0.0001  0.2500  0.2500  -0.5624   0.0000   0.2467
   1.500   0.1712   0.00958   0.00154  -0.0002  0.2500  0.2500  -0.6599   0.0000   0.2466
   2.000   0.2282   0.00961   0.00162  -0.0002  0.2500  0.2500  -0.7765   0.0000   0.2464
   2.500   0.2851   0.00966   0.00174  -0.0003  0.2500  0.2500  -0.9148   0.0000   0.2462
   3.000   0.3420   0.00972   0.00187  -0.0003  0.2500  0.2500  -1.0771   0.0000   0.2459
   3.500   0.3966   0.01007   0.00209  -0.0001  0.2080  0.2500  -1.2597   0.0000   0.2450
   4.000   0.4505   0.01050   0.00236   0.0002  0.1638  0.2500  -1.4605   0.0000   0.2440
   4.500   0.5046   0.01091   0.00267   0.0005  0.1299  0.2500  -1.6842   0.0000   0.2432
   5.000   0.5581   0.01138   0.00303   0.0009  0.1002  0.2500  -1.9310   0.0000   0.2424
   5.500   0.6115   0.01183   0.00342   0.0013  0.0778  0.2500  -2.2007   0.0000   0.2415
   6.000   0.6648   0.01229   0.00385   0.0017  0.0632  0.2500  -2.4810   0.0000   0.2407
   6.500   0.7178   0.01275   0.00431   0.0021  0.0522  0.2500  -2.8011   0.0000   0.2399
   7.000   0.7704   0.01323   0.00482   0.0026  0.0442  0.2500  -3.1374   0.0000   0.2390
   7.500   0.8220   0.01381   0.00540   0.0032  0.0368  0.2500  -3.4824   0.0000   0.2380
   8.000   0.8738   0.01433   0.00598   0.0038  0.0328  0.2500  -3.8428   0.0000   0.2370
   8.500   0.9240   0.01501   0.00669   0.0045  0.0281  0.2500  -4.2259   0.0000   0.2359
   9.000   0.9744   0.01559   0.00738   0.0053  0.0261  0.2500  -4.6475   0.0000   0.2348
   9.500   1.0233   0.01631   0.00815   0.0062  0.0235  0.2500  -5.0769   0.0000   0.2336
  10.000   1.0703   0.01717   0.00911   0.0074  0.0211  0.2500  -5.5076   0.0000   0.2321
  10.500   1.1176   0.01792   0.00997   0.0084  0.0198  0.2500  -5.9600   0.0000   0.2308
  11.000   1.1629   0.01879   0.01095   0.0097  0.0182  0.2500  -6.4149   0.0000   0.2293
  11.500   1.2053   0.01985   0.01211   0.0114  0.0167  0.2500  -6.8659   0.0000   0.2275
  12.000   1.2444   0.02109   0.01349   0.0134  0.0157  0.2500  -7.3035   0.0000   0.2255
  12.500   1.2828   0.02221   0.01476   0.0155  0.0151  0.2500  -7.7850   0.0000   0.2234
  13.000   1.3169   0.02347   0.01621   0.0180  0.0145  0.2500  -8.2687   0.0000   0.2210
  13.500   1.3415   0.02488   0.01777   0.0219  0.0138  0.2500  -8.7077   0.0000   0.2175
  14.000   1.3649   0.02667   0.01971   0.0251  0.0132  0.2500  -9.1451   0.0000   0.2146
  14.500   1.3835   0.02891   0.02210   0.0280  0.0126  0.2500  -9.5568   0.0000   0.2118
  15.000   1.3943   0.03204   0.02540   0.0303  0.0119  0.2500  -9.9113   0.0000   0.2094
  15.500   1.3927   0.03685   0.03045   0.0313  0.0113  0.2500  -10.1591   0.0000   0.2075
  16.000   1.3956   0.04199   0.03583   0.0306  0.0112  0.2500  -10.4407   0.0000   0.2070
  16.500   1.3898   0.04895   0.04304   0.0281  0.0111  0.2500  -10.6373   0.0000   0.2075
  17.000   1.3719   0.05822   0.05258   0.0238  0.0110  0.2500  -10.7102   0.0000   0.2091
  17.500   1.3393   0.07035   0.06498   0.0177  0.0109  0.2500  -10.6236   0.0000   0.2121
  18.000   1.2890   0.08585   0.08077   0.0098  0.0109  0.2500  -10.3304   0.0000   0.2165
  18.500   1.2273   0.10398   0.09918   0.0004  0.0109  0.2500  -9.8672   0.0000   0.2226
  19.000   1.1657   0.12310   0.11855  -0.0095  0.0109  0.2500  -9.3292   0.0000   0.2302
  19.500   1.1096   0.14206   0.13772  -0.0197  0.0109  0.2500  -8.7654   0.0000   0.2389
  20.000   1.0654   0.15986   0.15571  -0.0295  0.0108  0.2500  -8.2496   0.0000   0.2482


