xflr5 v6.42

 Calculated polar for: NACA_0012

 1 1 Reynolds number fixed          Mach number fixed         

 xtrf =   0.250 (top)        0.250 (bottom)
 Mach =   0.000     Re =     0.300 e 6     Ncrit =   5.000

  alpha     CL        CD       CDp       Cm    Top Xtr Bot Xtr   Cpmin    Chinge    XCp    
 ------- -------- --------- --------- -------- ------- ------- -------- --------- ---------
 -10.000  -1.0269   0.02279   0.01365  -0.0134  0.2500  0.0301  -5.1854   0.0000   0.2260
  -9.500  -0.9852   0.02157   0.01230  -0.0117  0.2500  0.0334  -4.7946   0.0000   0.2278
  -9.000  -0.9406   0.02055   0.01108  -0.0102  0.2500  0.0366  -4.4062   0.0000   0.2293
  -8.500  -0.8974   0.01928   0.00973  -0.0086  0.2500  0.0414  -4.0395   0.0000   0.2312
  -8.000  -0.8500   0.01840   0.00869  -0.0075  0.2500  0.0468  -3.6921   0.0000   0.2325
  -7.500  -0.8028   0.01743   0.00768  -0.0063  0.2500  0.0553  -3.3642   0.0000   0.2339
  -7.000  -0.7535   0.01666   0.00680  -0.0054  0.2500  0.0647  -3.0396   0.0000   0.2351
  -6.500  -0.7037   0.01592   0.00602  -0.0045  0.2500  0.0790  -2.7217   0.0000   0.2363
  -6.000  -0.6533   0.01520   0.00532  -0.0038  0.2500  0.0994  -2.4260   0.0000   0.2374
  -5.500  -0.6028   0.01447   0.00467  -0.0030  0.2500  0.1297  -2.1584   0.0000   0.2385
  -5.000  -0.5514   0.01385   0.00413  -0.0024  0.2500  0.1668  -1.8982   0.0000   0.2396
  -4.500  -0.4999   0.01322   0.00364  -0.0018  0.2500  0.2146  -1.6632   0.0000   0.2407
  -4.000  -0.4471   0.01276   0.00324  -0.0013  0.2500  0.2500  -1.4442   0.0000   0.2417
  -3.500  -0.3916   0.01261   0.00294  -0.0010  0.2500  0.2500  -1.2451   0.0000   0.2421
  -3.000  -0.3359   0.01249   0.00267  -0.0008  0.2500  0.2500  -1.0645   0.0000   0.2425
  -2.500  -0.2801   0.01240   0.00246  -0.0007  0.2500  0.2500  -0.9066   0.0000   0.2428
  -2.000  -0.2242   0.01232   0.00229  -0.0005  0.2500  0.2500  -0.7713   0.0000   0.2431
  -1.500  -0.1682   0.01226   0.00216  -0.0004  0.2500  0.2500  -0.6570   0.0000   0.2432
  -1.000  -0.1122   0.01222   0.00207  -0.0002  0.2500  0.2500  -0.5613   0.0000   0.2434
  -0.500  -0.0561   0.01220   0.00201  -0.0001  0.2500  0.2500  -0.4823   0.0000   0.2435
   0.000  -0.0000   0.01219   0.00200   0.0000  0.2500  0.2500  -0.4164   0.0000   0.4340
   0.500   0.0561   0.01220   0.00201   0.0001  0.2500  0.2500  -0.4823   0.0000   0.2435
   1.000   0.1122   0.01222   0.00207   0.0002  0.2500  0.2500  -0.5613   0.0000   0.2434
   1.500   0.1682   0.01226   0.00216   0.0004  0.2500  0.2500  -0.6570   0.0000   0.2433
   2.000   0.2242   0.01232   0.00229   0.0005  0.2500  0.2500  -0.7713   0.0000   0.2431
   2.500   0.2802   0.01240   0.00246   0.0007  0.2500  0.2500  -0.9066   0.0000   0.2428
   3.000   0.3359   0.01249   0.00267   0.0008  0.2500  0.2500  -1.0645   0.0000   0.2425
   3.500   0.3916   0.01261   0.00294   0.0010  0.2500  0.2500  -1.2451   0.0000   0.2421
   4.000   0.4471   0.01276   0.00324   0.0013  0.2500  0.2500  -1.4442   0.0000   0.2417
   4.500   0.4999   0.01322   0.00364   0.0018  0.2145  0.2500  -1.6632   0.0000   0.2407
   5.000   0.5515   0.01385   0.00413   0.0024  0.1667  0.2500  -1.8982   0.0000   0.2396
   5.500   0.6029   0.01447   0.00467   0.0030  0.1297  0.2500  -2.1586   0.0000   0.2385
   6.000   0.6534   0.01520   0.00532   0.0037  0.0994  0.2500  -2.4261   0.0000   0.2374
   6.500   0.7038   0.01592   0.00602   0.0045  0.0790  0.2500  -2.7220   0.0000   0.2363
   7.000   0.7536   0.01666   0.00680   0.0054  0.0647  0.2500  -3.0399   0.0000   0.2352
   7.500   0.8029   0.01743   0.00768   0.0063  0.0553  0.2500  -3.3646   0.0000   0.2340
   8.000   0.8501   0.01840   0.00869   0.0075  0.0468  0.2500  -3.6926   0.0000   0.2325
   8.500   0.8975   0.01928   0.00973   0.0086  0.0414  0.2500  -4.0402   0.0000   0.2312
   9.000   0.9408   0.02055   0.01108   0.0102  0.0366  0.2500  -4.4071   0.0000   0.2294
   9.500   0.9855   0.02157   0.01230   0.0116  0.0334  0.2500  -4.7957   0.0000   0.2278
  10.000   1.0272   0.02279   0.01366   0.0133  0.0301  0.2500  -5.1867   0.0000   0.2261
  10.500   1.0628   0.02449   0.01552   0.0157  0.0278  0.2500  -5.5449   0.0000   0.2236
  11.000   1.0984   0.02603   0.01730   0.0180  0.0262  0.2500  -5.9135   0.0000   0.2213
  11.500   1.1293   0.02775   0.01924   0.0208  0.0246  0.2500  -6.2684   0.0000   0.2186
  12.000   1.1519   0.02953   0.02123   0.0245  0.0232  0.2500  -6.5999   0.0000   0.2150
  12.500   1.1674   0.03216   0.02402   0.0279  0.0218  0.2500  -6.8920   0.0000   0.2116
  13.000   1.1799   0.03528   0.02741   0.0305  0.0209  0.2500  -7.1903   0.0000   0.2088
  13.500   1.1897   0.03895   0.03138   0.0320  0.0201  0.2500  -7.4699   0.0000   0.2068
  14.000   1.1929   0.04375   0.03650   0.0322  0.0194  0.2500  -7.6981   0.0000   0.2057
  14.500   1.1900   0.04991   0.04299   0.0308  0.0188  0.2500  -7.8728   0.0000   0.2058
  15.000   1.1801   0.05768   0.05106   0.0276  0.0184  0.2500  -7.9798   0.0000   0.2072
  15.500   1.1623   0.06733   0.06102   0.0227  0.0180  0.2500  -8.0037   0.0000   0.2099
  16.000   1.1344   0.07912   0.07311   0.0164  0.0178  0.2500  -7.9167   0.0000   0.2140
  16.500   1.0961   0.09367   0.08797   0.0082  0.0176  0.2500  -7.6919   0.0000   0.2199
  17.000   1.0405   0.11264   0.10728  -0.0025  0.0176  0.2500  -7.2276   0.0000   0.2289
  17.500   0.7876   0.18772   0.18269  -0.0400  0.0164  0.2500  -3.4792   0.0000   0.2800
  18.000   0.7912   0.19718   0.19215  -0.0446  0.0158  0.2500  -3.3773   0.0000   0.2851
  18.500   0.7835   0.21392   0.20888  -0.0520  0.0142  0.2500  -2.7599   0.0000   0.2952
  19.000   0.7916   0.22373   0.21871  -0.0569  0.0135  0.2500  -2.5832   0.0000   0.3002
  19.500   0.8027   0.23241   0.22741  -0.0615  0.0130  0.2500  -2.4958   0.0000   0.3042
  20.000   0.8152   0.24051   0.23554  -0.0659  0.0126  0.2500  -2.4608   0.0000   0.3077


