xflr5 v6.42

 Calculated polar for: NACA_6412

 1 1 Reynolds number fixed          Mach number fixed         

 xtrf =   0.250 (top)        0.250 (bottom)
 Mach =   0.000     Re =     0.300 e 6     Ncrit =   5.000

  alpha     CL        CD       CDp       Cm    Top Xtr Bot Xtr   Cpmin    Chinge    XCp    
 ------- -------- --------- --------- -------- ------- ------- -------- --------- ---------
 -10.000  -0.1608   0.10078   0.09431  -0.0765  0.2500  0.0183  -2.1274   0.0000  -0.2623
  -9.500  -0.1552   0.09310   0.08665  -0.0800  0.2500  0.0184  -2.2714   0.0000  -0.3021
  -8.500  -0.2750   0.02964   0.02239  -0.1373  0.2500  0.0204  -5.5825   0.0000  -0.2716
  -8.000  -0.2287   0.02656   0.01887  -0.1390  0.2500  0.0215  -5.2344   0.0000  -0.3828
  -7.500  -0.1798   0.02408   0.01592  -0.1400  0.2500  0.0234  -4.8731   0.0000  -0.5579
  -7.000  -0.1295   0.02169   0.01292  -0.1406  0.2500  0.0251  -4.5389   0.0000  -0.8731
  -6.500  -0.0781   0.01974   0.01060  -0.1409  0.2500  0.0267  -4.1779   0.0000  -1.6099
  -6.000  -0.0247   0.01872   0.00937  -0.1409  0.2500  0.0287  -3.7743   0.0000  -5.6113
  -5.500   0.0292   0.01781   0.00817  -0.1409  0.2500  0.0316  -3.3880   0.0000   5.1927
  -5.000   0.0833   0.01690   0.00706  -0.1409  0.2500  0.0350  -3.0126   0.0000   1.9809
  -4.500   0.1378   0.01630   0.00632  -0.1408  0.2500  0.0387  -2.6704   0.0000   1.2926
  -4.000   0.1925   0.01574   0.00558  -0.1407  0.2500  0.0428  -2.3643   0.0000   0.9936
  -3.500   0.2472   0.01532   0.00511  -0.1407  0.2500  0.0502  -2.0544   0.0000   0.8273
  -3.000   0.3021   0.01493   0.00460  -0.1405  0.2500  0.0577  -1.7632   0.0000   0.7208
  -2.500   0.3568   0.01471   0.00433  -0.1404  0.2500  0.0684  -1.4959   0.0000   0.6470
  -2.000   0.4115   0.01447   0.00408  -0.1403  0.2500  0.0830  -1.2593   0.0000   0.5930
  -1.500   0.4661   0.01432   0.00393  -0.1401  0.2500  0.1023  -1.0303   0.0000   0.5515
  -1.000   0.5206   0.01422   0.00385  -0.1399  0.2500  0.1267  -0.8801   0.0000   0.5188
  -0.500   0.5748   0.01417   0.00383  -0.1397  0.2500  0.1574  -0.9266   0.0000   0.4922
   0.000   0.6287   0.01414   0.00388  -0.1395  0.2500  0.1952  -0.9732   0.0000   0.4702
   0.500   0.6824   0.01413   0.00397  -0.1393  0.2500  0.2453  -1.0200   0.0000   0.4517
   1.000   0.7359   0.01426   0.00405  -0.1388  0.2500  0.2500  -1.0669   0.0000   0.4356
   1.500   0.7888   0.01444   0.00417  -0.1384  0.2500  0.2500  -1.1136   0.0000   0.4217
   2.000   0.8413   0.01464   0.00434  -0.1378  0.2500  0.2500  -1.1604   0.0000   0.4095
   2.500   0.8932   0.01487   0.00457  -0.1372  0.2500  0.2500  -1.2071   0.0000   0.3986
   3.000   0.9446   0.01511   0.00482  -0.1364  0.2500  0.2500  -1.2547   0.0000   0.3889
   3.500   0.9953   0.01538   0.00512  -0.1356  0.2500  0.2500  -1.3048   0.0000   0.3801
   4.000   1.0452   0.01567   0.00547  -0.1347  0.2500  0.2500  -1.3546   0.0000   0.3721
   4.500   1.0943   0.01598   0.00585  -0.1337  0.2500  0.2500  -1.4050   0.0000   0.3647
   5.000   1.1423   0.01632   0.00629  -0.1325  0.2500  0.2500  -1.4574   0.0000   0.3579
   5.500   1.1882   0.01668   0.00675  -0.1308  0.2500  0.2500  -1.5122   0.0000   0.3514
   6.000   1.2322   0.01707   0.00725  -0.1289  0.2500  0.2500  -1.5706   0.0000   0.3452
   6.500   1.2767   0.01751   0.00785  -0.1272  0.2500  0.2500  -1.6489   0.0000   0.3394
   7.000   1.3210   0.01801   0.00851  -0.1255  0.2500  0.2500  -1.8347   0.0000   0.3341
   7.500   1.3642   0.01856   0.00923  -0.1237  0.2500  0.2500  -2.0487   0.0000   0.3290
   8.000   1.4065   0.01916   0.01004  -0.1218  0.2500  0.2500  -2.2863   0.0000   0.3242
   8.500   1.4475   0.01982   0.01091  -0.1198  0.2500  0.2500  -2.5363   0.0000   0.3195
   9.000   1.4876   0.02055   0.01189  -0.1177  0.2500  0.2500  -2.8108   0.0000   0.3151
   9.500   1.5263   0.02135   0.01295  -0.1155  0.2500  0.2500  -3.0941   0.0000   0.3108
  10.000   1.5616   0.02238   0.01422  -0.1129  0.2469  0.2500  -3.4006   0.0000   0.3066
  10.500   1.5627   0.02555   0.01715  -0.1064  0.1920  0.2500  -3.5956   0.0000   0.3015
  11.000   1.5573   0.02956   0.02096  -0.1002  0.1390  0.2500  -3.7672   0.0000   0.2968
  11.500   1.5517   0.03402   0.02529  -0.0949  0.1007  0.2500  -3.9369   0.0000   0.2927
  12.000   1.5490   0.03863   0.02988  -0.0907  0.0765  0.2500  -4.1171   0.0000   0.2891
  12.500   1.5477   0.04350   0.03481  -0.0874  0.0609  0.2500  -4.3022   0.0000   0.2860
  13.000   1.5475   0.04865   0.04007  -0.0849  0.0503  0.2500  -4.4936   0.0000   0.2833
  13.500   1.5437   0.05450   0.04606  -0.0828  0.0426  0.2500  -4.6869   0.0000   0.2811
  14.000   1.5429   0.06029   0.05204  -0.0814  0.0377  0.2500  -4.8952   0.0000   0.2791
  14.500   1.5361   0.06708   0.05897  -0.0804  0.0335  0.2500  -5.0721   0.0000   0.2775
  15.000   1.5329   0.07363   0.06575  -0.0798  0.0307  0.2500  -5.2652   0.0000   0.2761
  15.500   1.5274   0.08056   0.07287  -0.0795  0.0280  0.2500  -5.4476   0.0000   0.2750
  16.000   1.5183   0.08820   0.08065  -0.0796  0.0256  0.2500  -5.6086   0.0000   0.2743
  16.500   1.5098   0.09589   0.08856  -0.0801  0.0238  0.2500  -5.7659   0.0000   0.2738
  17.000   1.5055   0.10302   0.09592  -0.0808  0.0224  0.2500  -5.9461   0.0000   0.2732
  17.500   1.5006   0.11025   0.10336  -0.0817  0.0210  0.2500  -6.1211   0.0000   0.2728
  18.000   1.4937   0.11797   0.11125  -0.0832  0.0198  0.2500  -6.2803   0.0000   0.2728
  18.500   1.4844   0.12619   0.11962  -0.0851  0.0187  0.2500  -6.4203   0.0000   0.2733
  19.000   1.4781   0.13394   0.12756  -0.0872  0.0177  0.2500  -6.5893   0.0000   0.2737
  19.500   1.4774   0.14089   0.13473  -0.0894  0.0169  0.2500  -6.7977   0.0000   0.2739
  20.000   1.4749   0.14820   0.14226  -0.0921  0.0160  0.2500  -6.9894   0.0000   0.2746


