xflr5 v6.42

 Calculated polar for: NACA_6412

 1 1 Reynolds number fixed          Mach number fixed         

 xtrf =   0.250 (top)        0.250 (bottom)
 Mach =   0.000     Re =     1.000 e 6     Ncrit =   5.000

  alpha     CL        CD       CDp       Cm    Top Xtr Bot Xtr   Cpmin    Chinge    XCp    
 ------- -------- --------- --------- -------- ------- ------- -------- --------- ---------
 -10.000  -0.4475   0.01799   0.01134  -0.1438  0.2500  0.0133  -8.0121   0.0000  -0.0902
  -9.500  -0.3948   0.01692   0.01005  -0.1440  0.2500  0.0138  -7.4672   0.0000  -0.1344
  -9.000  -0.3412   0.01605   0.00898  -0.1441  0.2500  0.0142  -6.9257   0.0000  -0.1933
  -8.500  -0.2874   0.01508   0.00781  -0.1443  0.2500  0.0148  -6.4125   0.0000  -0.2746
  -8.000  -0.2330   0.01428   0.00685  -0.1444  0.2500  0.0160  -5.9019   0.0000  -0.3955
  -7.500  -0.1777   0.01373   0.00618  -0.1445  0.2500  0.0171  -5.3909   0.0000  -0.5937
  -7.000  -0.1222   0.01326   0.00558  -0.1446  0.2500  0.0182  -4.8968   0.0000  -0.9743
  -6.500  -0.0663   0.01286   0.00505  -0.1447  0.2500  0.0191  -4.4180   0.0000  -1.9990
  -6.000  -0.0105   0.01239   0.00448  -0.1448  0.2500  0.0212  -3.9629   0.0000  -13.8992
  -5.500   0.0456   0.01206   0.00408  -0.1449  0.2500  0.0233  -3.5198   0.0000   3.5109
  -5.000   0.1018   0.01180   0.00374  -0.1450  0.2500  0.0250  -3.0950   0.0000   1.7064
  -4.500   0.1581   0.01151   0.00339  -0.1451  0.2500  0.0282  -2.7352   0.0000   1.1864
  -4.000   0.2143   0.01133   0.00316  -0.1452  0.2500  0.0320  -2.3896   0.0000   0.9392
  -3.500   0.2706   0.01114   0.00294  -0.1453  0.2500  0.0365  -2.0627   0.0000   0.7947
  -3.000   0.3269   0.01101   0.00278  -0.1454  0.2500  0.0415  -1.7482   0.0000   0.7000
  -2.500   0.3831   0.01088   0.00266  -0.1455  0.2500  0.0501  -1.4795   0.0000   0.6332
  -2.000   0.4393   0.01080   0.00257  -0.1456  0.2500  0.0595  -1.2305   0.0000   0.5834
  -1.500   0.4953   0.01074   0.00252  -0.1456  0.2500  0.0715  -0.9937   0.0000   0.5449
  -1.000   0.5512   0.01069   0.00250  -0.1457  0.2500  0.0875  -0.8891   0.0000   0.5143
  -0.500   0.6070   0.01066   0.00252  -0.1458  0.2500  0.1090  -0.9360   0.0000   0.4892
   0.000   0.6627   0.01066   0.00257  -0.1458  0.2500  0.1342  -0.9834   0.0000   0.4684
   0.500   0.7181   0.01067   0.00265  -0.1458  0.2500  0.1651  -1.0311   0.0000   0.4507
   1.000   0.7733   0.01070   0.00276  -0.1458  0.2500  0.1998  -1.0789   0.0000   0.4356
   1.500   0.8284   0.01073   0.00289  -0.1458  0.2500  0.2441  -1.1292   0.0000   0.4224
   2.000   0.8830   0.01086   0.00302  -0.1457  0.2500  0.2500  -1.1811   0.0000   0.4107
   2.500   0.9373   0.01102   0.00318  -0.1455  0.2500  0.2500  -1.2333   0.0000   0.4003
   3.000   0.9913   0.01118   0.00335  -0.1452  0.2500  0.2500  -1.2856   0.0000   0.3910
   3.500   1.0447   0.01136   0.00355  -0.1449  0.2500  0.2500  -1.3379   0.0000   0.3826
   4.000   1.0978   0.01154   0.00377  -0.1445  0.2500  0.2500  -1.3902   0.0000   0.3749
   4.500   1.1503   0.01174   0.00401  -0.1441  0.2500  0.2500  -1.4435   0.0000   0.3679
   5.000   1.2022   0.01195   0.00429  -0.1435  0.2500  0.2500  -1.5001   0.0000   0.3614
   5.500   1.2534   0.01218   0.00458  -0.1429  0.2500  0.2500  -1.5622   0.0000   0.3553
   6.000   1.3039   0.01242   0.00491  -0.1421  0.2500  0.2500  -1.6280   0.0000   0.3496
   6.500   1.3535   0.01268   0.00525  -0.1412  0.2500  0.2500  -1.7907   0.0000   0.3442
   7.000   1.4019   0.01295   0.00562  -0.1401  0.2500  0.2500  -2.0138   0.0000   0.3391
   7.500   1.4467   0.01323   0.00603  -0.1383  0.2500  0.2500  -2.2576   0.0000   0.3340
   8.000   1.4884   0.01370   0.00656  -0.1360  0.2433  0.2500  -2.5074   0.0000   0.3290
   8.500   1.5123   0.01523   0.00781  -0.1310  0.1878  0.2500  -2.7363   0.0000   0.3234
   9.000   1.5281   0.01721   0.00949  -0.1249  0.1310  0.2500  -2.9465   0.0000   0.3177
   9.500   1.5466   0.01908   0.01118  -0.1196  0.0936  0.2500  -3.1892   0.0000   0.3125
  10.000   1.5661   0.02099   0.01300  -0.1149  0.0672  0.2500  -3.4465   0.0000   0.3077
  10.500   1.5847   0.02304   0.01502  -0.1104  0.0500  0.2500  -3.7076   0.0000   0.3031
  11.000   1.6055   0.02510   0.01710  -0.1066  0.0402  0.2500  -3.9831   0.0000   0.2989
  11.500   1.6225   0.02753   0.01956  -0.1027  0.0321  0.2500  -4.2507   0.0000   0.2949
  12.000   1.6394   0.03013   0.02222  -0.0992  0.0274  0.2500  -4.5242   0.0000   0.2911
  12.500   1.6549   0.03301   0.02521  -0.0960  0.0238  0.2500  -4.8208   0.0000   0.2876
  13.000   1.6688   0.03618   0.02848  -0.0931  0.0214  0.2500  -5.1209   0.0000   0.2844
  13.500   1.6769   0.04009   0.03249  -0.0903  0.0187  0.2500  -5.3982   0.0000   0.2814
  14.000   1.6867   0.04410   0.03664  -0.0880  0.0173  0.2500  -5.6878   0.0000   0.2786
  14.500   1.6938   0.04860   0.04128  -0.0861  0.0159  0.2500  -5.9684   0.0000   0.2761
  15.000   1.6956   0.05379   0.04659  -0.0843  0.0144  0.2500  -6.2252   0.0000   0.2739
  15.500   1.6950   0.05950   0.05245  -0.0829  0.0130  0.2500  -6.4675   0.0000   0.2719
  16.000   1.6961   0.06522   0.05834  -0.0819  0.0125  0.2500  -6.7231   0.0000   0.2701
  16.500   1.6939   0.07148   0.06476  -0.0813  0.0118  0.2500  -6.9606   0.0000   0.2686
  17.000   1.6886   0.07817   0.07161  -0.0809  0.0112  0.2500  -7.1915   0.0000   0.2673
  17.500   1.6814   0.08527   0.07887  -0.0808  0.0106  0.2500  -7.4227   0.0000   0.2662
  18.000   1.6725   0.09274   0.08651  -0.0811  0.0099  0.2500  -7.6405   0.0000   0.2654
  18.500   1.6616   0.10057   0.09451  -0.0818  0.0093  0.2500  -7.8396   0.0000   0.2648
  19.000   1.6533   0.10801   0.10212  -0.0827  0.0090  0.2500  -8.0564   0.0000   0.2643
  19.500   1.6448   0.11563   0.10992  -0.0840  0.0087  0.2500  -8.2697   0.0000   0.2641
  20.000   1.6365   0.12336   0.11782  -0.0857  0.0085  0.2500  -8.4798   0.0000   0.2641


