xflr5 v6.42

 Calculated polar for: NACA_0012

 1 1 Reynolds number fixed          Mach number fixed         

 xtrf =   0.250 (top)        0.250 (bottom)
 Mach =   0.000     Re =     0.400 e 6     Ncrit =   5.000

  alpha     CL        CD       CDp       Cm    Top Xtr Bot Xtr   Cpmin    Chinge    XCp    
 ------- -------- --------- --------- -------- ------- ------- -------- --------- ---------
 -10.000  -1.0412   0.02088   0.01209  -0.0114  0.2500  0.0271  -5.2934   0.0000   0.2280
  -9.500  -0.9983   0.01973   0.01076  -0.0098  0.2500  0.0293  -4.8984   0.0000   0.2298
  -9.000  -0.9534   0.01869   0.00965  -0.0084  0.2500  0.0331  -4.4987   0.0000   0.2314
  -8.500  -0.9056   0.01789   0.00871  -0.0074  0.2500  0.0366  -4.0999   0.0000   0.2327
  -8.000  -0.8585   0.01694   0.00768  -0.0062  0.2500  0.0422  -3.7471   0.0000   0.2341
  -7.500  -0.8087   0.01626   0.00689  -0.0053  0.2500  0.0477  -3.4035   0.0000   0.2352
  -7.000  -0.7592   0.01548   0.00611  -0.0045  0.2500  0.0581  -3.0730   0.0000   0.2364
  -6.500  -0.7085   0.01482   0.00541  -0.0037  0.2500  0.0700  -2.7497   0.0000   0.2375
  -6.000  -0.6573   0.01419   0.00479  -0.0030  0.2500  0.0879  -2.4454   0.0000   0.2385
  -5.500  -0.6055   0.01360   0.00423  -0.0024  0.2500  0.1111  -2.1727   0.0000   0.2395
  -5.000  -0.5534   0.01303   0.00374  -0.0019  0.2500  0.1433  -1.9092   0.0000   0.2405
  -4.500  -0.5013   0.01245   0.00329  -0.0014  0.2500  0.1857  -1.6703   0.0000   0.2415
  -4.000  -0.4488   0.01191   0.00291  -0.0009  0.2500  0.2345  -1.4510   0.0000   0.2426
  -3.500  -0.3939   0.01167   0.00263  -0.0006  0.2500  0.2500  -1.2512   0.0000   0.2432
  -3.000  -0.3379   0.01157   0.00239  -0.0005  0.2500  0.2500  -1.0686   0.0000   0.2436
  -2.500  -0.2817   0.01148   0.00221  -0.0004  0.2500  0.2500  -0.9093   0.0000   0.2439
  -2.000  -0.2255   0.01142   0.00206  -0.0003  0.2500  0.2500  -0.7730   0.0000   0.2441
  -1.500  -0.1692   0.01137   0.00195  -0.0002  0.2500  0.2500  -0.6580   0.0000   0.2443
  -1.000  -0.1128   0.01133   0.00186  -0.0001  0.2500  0.2500  -0.5616   0.0000   0.2444
  -0.500  -0.0564   0.01131   0.00182  -0.0001  0.2500  0.2500  -0.4821   0.0000   0.2445
   0.000   0.0000   0.01130   0.00181  -0.0000  0.2500  0.2500  -0.4159   0.0000   0.4413
   0.500   0.0564   0.01131   0.00182   0.0001  0.2500  0.2500  -0.4821   0.0000   0.2445
   1.000   0.1128   0.01133   0.00186   0.0001  0.2500  0.2500  -0.5616   0.0000   0.2444
   1.500   0.1692   0.01137   0.00195   0.0002  0.2500  0.2500  -0.6580   0.0000   0.2443
   2.000   0.2255   0.01142   0.00206   0.0003  0.2500  0.2500  -0.7730   0.0000   0.2441
   2.500   0.2817   0.01148   0.00221   0.0004  0.2500  0.2500  -0.9093   0.0000   0.2439
   3.000   0.3379   0.01157   0.00239   0.0005  0.2500  0.2500  -1.0686   0.0000   0.2436
   3.500   0.3939   0.01167   0.00263   0.0006  0.2500  0.2500  -1.2512   0.0000   0.2432
   4.000   0.4488   0.01191   0.00291   0.0009  0.2345  0.2500  -1.4510   0.0000   0.2426
   4.500   0.5013   0.01245   0.00329   0.0014  0.1856  0.2500  -1.6704   0.0000   0.2415
   5.000   0.5535   0.01303   0.00374   0.0019  0.1433  0.2500  -1.9093   0.0000   0.2405
   5.500   0.6056   0.01360   0.00423   0.0024  0.1111  0.2500  -2.1729   0.0000   0.2395
   6.000   0.6573   0.01419   0.00479   0.0030  0.0879  0.2500  -2.4455   0.0000   0.2386
   6.500   0.7086   0.01482   0.00541   0.0037  0.0700  0.2500  -2.7499   0.0000   0.2375
   7.000   0.7593   0.01548   0.00611   0.0044  0.0581  0.2500  -3.0733   0.0000   0.2365
   7.500   0.8088   0.01626   0.00689   0.0053  0.0477  0.2500  -3.4039   0.0000   0.2353
   8.000   0.8586   0.01694   0.00768   0.0062  0.0422  0.2500  -3.7476   0.0000   0.2342
   8.500   0.9058   0.01790   0.00871   0.0073  0.0366  0.2500  -4.1006   0.0000   0.2327
   9.000   0.9536   0.01869   0.00965   0.0084  0.0331  0.2500  -4.4996   0.0000   0.2314
   9.500   0.9986   0.01973   0.01076   0.0097  0.0293  0.2500  -4.8994   0.0000   0.2299
  10.000   1.0415   0.02088   0.01210   0.0114  0.0271  0.2500  -5.2947   0.0000   0.2281
  10.500   1.0835   0.02202   0.01342   0.0131  0.0252  0.2500  -5.6993   0.0000   0.2263
  11.000   1.1226   0.02331   0.01484   0.0150  0.0233  0.2500  -6.1041   0.0000   0.2243
  11.500   1.1529   0.02516   0.01686   0.0179  0.0214  0.2500  -6.4655   0.0000   0.2214
  12.000   1.1846   0.02658   0.01849   0.0207  0.0204  0.2500  -6.8514   0.0000   0.2188
  12.500   1.2072   0.02835   0.02048   0.0244  0.0194  0.2500  -7.2026   0.0000   0.2152
  13.000   1.2272   0.03058   0.02293   0.0275  0.0185  0.2500  -7.5713   0.0000   0.2123
  13.500   1.2426   0.03334   0.02590   0.0299  0.0177  0.2500  -7.9160   0.0000   0.2097
  14.000   1.2515   0.03698   0.02978   0.0313  0.0171  0.2500  -8.2175   0.0000   0.2078
  14.500   1.2516   0.04214   0.03517   0.0313  0.0165  0.2500  -8.4449   0.0000   0.2068
  15.000   1.2398   0.04955   0.04285   0.0291  0.0160  0.2500  -8.5595   0.0000   0.2072
  15.500   1.2259   0.05807   0.05166   0.0255  0.0157  0.2500  -8.6398   0.0000   0.2088
  16.000   1.2069   0.06807   0.06196   0.0204  0.0155  0.2500  -8.6571   0.0000   0.2115
  16.500   1.1778   0.08004   0.07423   0.0142  0.0154  0.2500  -8.5629   0.0000   0.2152
  17.000   1.1417   0.09398   0.08846   0.0068  0.0153  0.2500  -8.3654   0.0000   0.2203
  17.500   1.0975   0.11012   0.10488  -0.0019  0.0153  0.2500  -8.0394   0.0000   0.2270
  18.000   1.0449   0.12902   0.12407  -0.0121  0.0152  0.2500  -7.5450   0.0000   0.2361
  19.000   0.8092   0.21494   0.21033  -0.0544  0.0118  0.2500  -3.2669   0.0000   0.2946
  19.500   0.8210   0.22210   0.21751  -0.0585  0.0114  0.2500  -3.2976   0.0000   0.2979
  20.000   0.8231   0.23559   0.23100  -0.0647  0.0107  0.2500  -2.8317   0.0000   0.3050


