xflr5 v6.42

 Calculated polar for: NACA_6412

 1 1 Reynolds number fixed          Mach number fixed         

 xtrf =   0.250 (top)        0.250 (bottom)
 Mach =   0.000     Re =     0.055 e 6     Ncrit =   5.000

  alpha     CL        CD       CDp       Cm    Top Xtr Bot Xtr   Cpmin    Chinge    XCp    
 ------- -------- --------- --------- -------- ------- ------- -------- --------- ---------
 -10.000  -0.1497   0.12009   0.10942  -0.0694  0.2500  0.0956  -1.3506   0.0000  -0.2486
  -9.500  -0.1365   0.11447   0.10381  -0.0710  0.2500  0.0990  -1.3390   0.0000  -0.3067
  -9.000  -0.1257   0.10900   0.09835  -0.0730  0.2500  0.1015  -1.3434   0.0000  -0.3675
  -8.500  -0.1159   0.10334   0.09274  -0.0750  0.2500  0.1016  -1.3544   0.0000  -0.4345
  -8.000  -0.1266   0.09474   0.08421  -0.0818  0.2500  0.0680  -1.6811   0.0000  -0.4290
  -7.500  -0.1166   0.08863   0.07815  -0.0823  0.2500  0.0664  -1.6975   0.0000  -0.4888
  -7.000  -0.1103   0.08201   0.07161  -0.0879  0.2500  0.0675  -1.8095   0.0000  -0.5790
  -6.500  -0.0952   0.07418   0.06376  -0.0954  0.2500  0.0682  -1.9285   0.0000  -0.7849
  -6.000  -0.0731   0.06633   0.05582  -0.1007  0.2500  0.0674  -1.9882   0.0000  -1.1667
  -5.500  -0.0427   0.05719   0.04641  -0.1081  0.2500  0.0673  -2.0882   0.0000  -2.3465
  -5.000  -0.0013   0.04716   0.03572  -0.1165  0.2500  0.0705  -2.1966   0.0000  -90.8311
  -4.500   0.0413   0.04376   0.03208  -0.1174  0.2500  0.0770  -1.9916   0.0000   3.1452
  -4.000   0.0955   0.03709   0.02442  -0.1217  0.2500  0.0821  -1.9635   0.0000   1.5457
  -3.500   0.1494   0.03323   0.01977  -0.1235  0.2500  0.0931  -1.8431   0.0000   1.0884
  -3.000   0.2031   0.03074   0.01665  -0.1239  0.2500  0.1047  -1.6747   0.0000   0.8674
  -2.500   0.2562   0.02885   0.01437  -0.1240  0.2500  0.1200  -1.4787   0.0000   0.7383
  -2.000   0.3088   0.02758   0.01276  -0.1236  0.2500  0.1419  -1.2951   0.0000   0.6527
  -1.500   0.3605   0.02666   0.01161  -0.1229  0.2500  0.1693  -1.1143   0.0000   0.5920
  -1.000   0.4132   0.02602   0.01081  -0.1223  0.2500  0.2065  -0.9269   0.0000   0.5461
  -0.500   0.4654   0.02547   0.01016  -0.1217  0.2500  0.2500  -0.8673   0.0000   0.5107
   0.000   0.5174   0.02520   0.00957  -0.1209  0.2500  0.2500  -0.9053   0.0000   0.4820
   0.500   0.5677   0.02536   0.00944  -0.1200  0.2500  0.2500  -0.9454   0.0000   0.4590
   1.000   0.6170   0.02566   0.00951  -0.1191  0.2500  0.2500  -0.9852   0.0000   0.4398
   1.500   0.6655   0.02604   0.00974  -0.1180  0.2500  0.2500  -1.0243   0.0000   0.4234
   2.000   0.7131   0.02650   0.01010  -0.1168  0.2500  0.2500  -1.0637   0.0000   0.4093
   2.500   0.7592   0.02703   0.01056  -0.1154  0.2500  0.2500  -1.1047   0.0000   0.3969
   3.000   0.8039   0.02761   0.01116  -0.1139  0.2500  0.2500  -1.1449   0.0000   0.3859
   3.500   0.8477   0.02827   0.01184  -0.1122  0.2500  0.2500  -1.1862   0.0000   0.3761
   4.000   0.8911   0.02902   0.01266  -0.1107  0.2500  0.2500  -1.2285   0.0000   0.3672
   4.500   0.9337   0.02985   0.01363  -0.1091  0.2500  0.2500  -1.2733   0.0000   0.3592
   5.000   0.9751   0.03078   0.01470  -0.1074  0.2500  0.2500  -1.3175   0.0000   0.3518
   5.500   1.0153   0.03181   0.01591  -0.1056  0.2500  0.2500  -1.3638   0.0000   0.3451
   6.000   1.0538   0.03297   0.01733  -0.1038  0.2500  0.2500  -1.4113   0.0000   0.3388
   6.500   1.0908   0.03426   0.01886  -0.1018  0.2500  0.2500  -1.4601   0.0000   0.3330
   7.000   1.1259   0.03571   0.02060  -0.0998  0.2500  0.2500  -1.5121   0.0000   0.3276
   7.500   1.1588   0.03735   0.02261  -0.0977  0.2500  0.2500  -1.6017   0.0000   0.3225
   8.000   1.1897   0.03920   0.02482  -0.0956  0.2500  0.2500  -1.7490   0.0000   0.3178
   8.500   1.2180   0.04133   0.02733  -0.0934  0.2500  0.2500  -1.9121   0.0000   0.3134
   9.000   1.2434   0.04378   0.03024  -0.0913  0.2500  0.2500  -2.0831   0.0000   0.3092
   9.500   1.2657   0.04661   0.03352  -0.0892  0.2500  0.2500  -2.2614   0.0000   0.3054
  10.000   1.2844   0.04990   0.03729  -0.0871  0.2500  0.2500  -2.4330   0.0000   0.3020
  10.500   1.2993   0.05372   0.04161  -0.0852  0.2500  0.2500  -2.6120   0.0000   0.2989
  11.000   1.3102   0.05815   0.04661  -0.0835  0.2500  0.2500  -2.7815   0.0000   0.2961
  11.500   1.3171   0.06322   0.05223  -0.0821  0.2500  0.2500  -2.9379   0.0000   0.2938
  12.000   1.3209   0.06888   0.05843  -0.0810  0.2500  0.2500  -3.0871   0.0000   0.2918
  12.500   1.3235   0.07489   0.06501  -0.0801  0.2500  0.2500  -3.2425   0.0000   0.2901
  13.000   1.3272   0.08090   0.07160  -0.0794  0.2500  0.2500  -3.4003   0.0000   0.2885
  13.500   1.3350   0.08640   0.07774  -0.0785  0.2500  0.2500  -3.5718   0.0000   0.2865
  14.000   1.3466   0.09086   0.08265  -0.0772  0.2365  0.2500  -3.7629   0.0000   0.2840
  14.500   1.3482   0.09565   0.08727  -0.0758  0.1917  0.2500  -3.9287   0.0000   0.2819
  15.000   1.3375   0.10270   0.09398  -0.0755  0.1535  0.2500  -4.0282   0.0000   0.2809
  15.500   1.3233   0.11102   0.10216  -0.0761  0.1261  0.2500  -4.0948   0.0000   0.2810
  16.000   1.3150   0.11861   0.10968  -0.0768  0.1067  0.2500  -4.1942   0.0000   0.2808
  16.500   1.3118   0.12551   0.11654  -0.0776  0.0919  0.2500  -4.3154   0.0000   0.2805
  17.000   1.3120   0.13239   0.12370  -0.0787  0.0806  0.2500  -4.4318   0.0000   0.2803
  17.500   1.3203   0.13715   0.12841  -0.0787  0.0722  0.2500  -4.6067   0.0000   0.2788
  18.000   1.3153   0.14581   0.13760  -0.0816  0.0659  0.2500  -4.6596   0.0000   0.2803
  18.500   1.3143   0.15347   0.14550  -0.0844  0.0604  0.2500  -4.7488   0.0000   0.2813
  19.000   1.3215   0.15921   0.15136  -0.0857  0.0565  0.2500  -4.8783   0.0000   0.2808
  19.500   1.2895   0.17607   0.16877  -0.0952  0.0551  0.2500  -4.6449   0.0000   0.2890
  20.000   1.2262   0.20607   0.19914  -0.1133  0.0549  0.2500  -3.9518   0.0000   0.3077


