xflr5 v6.42

 Calculated polar for: NACA_0012

 1 1 Reynolds number fixed          Mach number fixed         

 xtrf =   0.250 (top)        0.250 (bottom)
 Mach =   0.000     Re =     1.500 e 6     Ncrit =   5.000

  alpha     CL        CD       CDp       Cm    Top Xtr Bot Xtr   Cpmin    Chinge    XCp    
 ------- -------- --------- --------- -------- ------- ------- -------- --------- ---------
 -10.000  -1.0888   0.01474   0.00729  -0.0047  0.2500  0.0175  -5.6414   0.0000   0.2347
  -9.500  -1.0391   0.01410   0.00662  -0.0039  0.2500  0.0196  -5.1847   0.0000   0.2359
  -9.000  -0.9880   0.01358   0.00603  -0.0032  0.2500  0.0211  -4.7364   0.0000   0.2370
  -8.500  -0.9365   0.01304   0.00545  -0.0026  0.2500  0.0238  -4.3056   0.0000   0.2380
  -8.000  -0.8844   0.01254   0.00492  -0.0021  0.2500  0.0269  -3.9032   0.0000   0.2390
  -7.500  -0.8313   0.01212   0.00446  -0.0017  0.2500  0.0297  -3.5344   0.0000   0.2399
  -7.000  -0.7785   0.01165   0.00401  -0.0013  0.2500  0.0355  -3.1795   0.0000   0.2407
  -6.500  -0.7247   0.01126   0.00360  -0.0009  0.2500  0.0416  -2.8360   0.0000   0.2415
  -6.000  -0.6706   0.01090   0.00324  -0.0007  0.2500  0.0478  -2.5055   0.0000   0.2423
  -5.500  -0.6165   0.01050   0.00288  -0.0004  0.2500  0.0604  -2.2209   0.0000   0.2430
  -5.000  -0.5620   0.01014   0.00257  -0.0001  0.2500  0.0748  -1.9465   0.0000   0.2437
  -4.500  -0.5073   0.00978   0.00229   0.0001  0.2500  0.0953  -1.6937   0.0000   0.2444
  -4.000  -0.4523   0.00945   0.00203   0.0002  0.2500  0.1186  -1.4670   0.0000   0.2451
  -3.500  -0.3974   0.00910   0.00180   0.0004  0.2500  0.1523  -1.2629   0.0000   0.2459
  -3.000  -0.3421   0.00878   0.00160   0.0005  0.2500  0.1886  -1.0781   0.0000   0.2466
  -2.500  -0.2869   0.00846   0.00143   0.0007  0.2500  0.2334  -0.9177   0.0000   0.2476
  -2.000  -0.2302   0.00833   0.00133   0.0006  0.2500  0.2500  -0.7790   0.0000   0.2480
  -1.500  -0.1727   0.00830   0.00127   0.0005  0.2500  0.2500  -0.6612   0.0000   0.2482
  -1.000  -0.1151   0.00828   0.00123   0.0003  0.2500  0.2500  -0.5630   0.0000   0.2483
  -0.500  -0.0576   0.00827   0.00120   0.0002  0.2500  0.2500  -0.4815   0.0000   0.2484
   0.000   0.0000   0.00827   0.00119  -0.0000  0.2500  0.2500  -0.4143   0.0000   0.4659
   0.500   0.0576   0.00827   0.00120  -0.0002  0.2500  0.2500  -0.4815   0.0000   0.2484
   1.000   0.1151   0.00828   0.00123  -0.0003  0.2500  0.2500  -0.5630   0.0000   0.2483
   1.500   0.1727   0.00830   0.00127  -0.0005  0.2500  0.2500  -0.6612   0.0000   0.2482
   2.000   0.2302   0.00833   0.00133  -0.0006  0.2500  0.2500  -0.7790   0.0000   0.2481
   2.500   0.2869   0.00846   0.00143  -0.0007  0.2334  0.2500  -0.9177   0.0000   0.2476
   3.000   0.3421   0.00878   0.00160  -0.0005  0.1886  0.2500  -1.0782   0.0000   0.2466
   3.500   0.3974   0.00910   0.00180  -0.0004  0.1523  0.2500  -1.2629   0.0000   0.2459
   4.000   0.4523   0.00945   0.00203  -0.0002  0.1186  0.2500  -1.4670   0.0000   0.2451
   4.500   0.5073   0.00978   0.00229  -0.0001  0.0953  0.2500  -1.6937   0.0000   0.2444
   5.000   0.5620   0.01014   0.00257   0.0001  0.0748  0.2500  -1.9466   0.0000   0.2437
   5.500   0.6166   0.01050   0.00288   0.0004  0.0604  0.2500  -2.2210   0.0000   0.2430
   6.000   0.6706   0.01090   0.00324   0.0006  0.0478  0.2500  -2.5057   0.0000   0.2423
   6.500   0.7248   0.01126   0.00360   0.0009  0.0416  0.2500  -2.8362   0.0000   0.2416
   7.000   0.7785   0.01165   0.00401   0.0012  0.0355  0.2500  -3.1797   0.0000   0.2408
   7.500   0.8314   0.01212   0.00446   0.0017  0.0297  0.2500  -3.5347   0.0000   0.2399
   8.000   0.8845   0.01254   0.00492   0.0021  0.0269  0.2500  -3.9035   0.0000   0.2390
   8.500   0.9366   0.01304   0.00545   0.0026  0.0238  0.2500  -4.3061   0.0000   0.2381
   9.000   0.9881   0.01358   0.00603   0.0032  0.0211  0.2500  -4.7370   0.0000   0.2370
   9.500   1.0393   0.01410   0.00662   0.0038  0.0196  0.2500  -5.1854   0.0000   0.2360
  10.000   1.0890   0.01474   0.00729   0.0046  0.0175  0.2500  -5.6423   0.0000   0.2348
  10.500   1.1378   0.01543   0.00805   0.0056  0.0158  0.2500  -6.1053   0.0000   0.2335
  11.000   1.1864   0.01607   0.00878   0.0065  0.0152  0.2500  -6.5871   0.0000   0.2322
  11.500   1.2335   0.01680   0.00959   0.0076  0.0143  0.2500  -7.0751   0.0000   0.2308
  12.000   1.2788   0.01762   0.01049   0.0089  0.0134  0.2500  -7.5677   0.0000   0.2293
  12.500   1.3218   0.01856   0.01151   0.0104  0.0124  0.2500  -8.0971   0.0000   0.2275
  13.000   1.3617   0.01966   0.01272   0.0124  0.0113  0.2500  -8.6256   0.0000   0.2255
  13.500   1.4014   0.02061   0.01378   0.0143  0.0111  0.2500  -9.1764   0.0000   0.2236
  14.000   1.4370   0.02171   0.01500   0.0168  0.0107  0.2500  -9.7128   0.0000   0.2213
  14.500   1.4626   0.02293   0.01635   0.0207  0.0104  0.2500  -10.1972   0.0000   0.2179
  15.000   1.4875   0.02449   0.01804   0.0240  0.0100  0.2500  -10.6830   0.0000   0.2151
  15.500   1.5083   0.02641   0.02010   0.0270  0.0096  0.2500  -11.1460   0.0000   0.2123
  16.000   1.5244   0.02887   0.02269   0.0296  0.0093  0.2500  -11.5779   0.0000   0.2098
  16.500   1.5353   0.03207   0.02604   0.0314  0.0089  0.2500  -11.9697   0.0000   0.2077
  17.000   1.5404   0.03634   0.03048   0.0320  0.0086  0.2500  -12.3091   0.0000   0.2063
  17.500   1.5372   0.04214   0.03648   0.0311  0.0083  0.2500  -12.5668   0.0000   0.2056
  18.000   1.5227   0.05009   0.04466   0.0282  0.0081  0.2500  -12.7075   0.0000   0.2060
  18.500   1.4921   0.06107   0.05590   0.0232  0.0079  0.2500  -12.6738   0.0000   0.2077
  19.000   1.4428   0.07550   0.07061   0.0160  0.0079  0.2500  -12.4269   0.0000   0.2108
  19.500   1.3723   0.09431   0.08972   0.0063  0.0079  0.2500  -11.9100   0.0000   0.2160
  20.000   1.2848   0.11685   0.11256  -0.0055  0.0081  0.2500  -11.1280   0.0000   0.2238


