xflr5 v6.42

 Calculated polar for: NACA_0012

 1 1 Reynolds number fixed          Mach number fixed         

 xtrf =   0.250 (top)        0.250 (bottom)
 Mach =   0.000     Re =     0.040 e 6     Ncrit =   5.000

  alpha     CL        CD       CDp       Cm    Top Xtr Bot Xtr   Cpmin    Chinge    XCp    
 ------- -------- --------- --------- -------- ------- ------- -------- --------- ---------
 -10.000  -0.8873   0.05794   0.04630  -0.0256  0.2500  0.0927  -3.7131   0.0000   0.2108
  -9.500  -0.8843   0.05120   0.03871  -0.0228  0.2500  0.0984  -3.6662   0.0000   0.2143
  -9.000  -0.8538   0.04676   0.03400  -0.0209  0.2500  0.1068  -3.4520   0.0000   0.2161
  -8.500  -0.8243   0.04246   0.02901  -0.0187  0.2500  0.1206  -3.2884   0.0000   0.2183
  -8.000  -0.7850   0.03906   0.02534  -0.0170  0.2500  0.1371  -3.0750   0.0000   0.2198
  -7.500  -0.7452   0.03608   0.02212  -0.0152  0.2500  0.1611  -2.8528   0.0000   0.2215
  -7.000  -0.7044   0.03342   0.01933  -0.0134  0.2500  0.1936  -2.6221   0.0000   0.2233
  -6.500  -0.6640   0.03113   0.01701  -0.0115  0.2500  0.2396  -2.4007   0.0000   0.2255
  -6.000  -0.6131   0.02895   0.01443  -0.0103  0.2500  0.2500  -2.1836   0.0000   0.2263
  -5.500  -0.5630   0.02779   0.01265  -0.0091  0.2500  0.2500  -1.9522   0.0000   0.2272
  -5.000  -0.5130   0.02697   0.01127  -0.0081  0.2500  0.2500  -1.7321   0.0000   0.2278
  -4.500  -0.4629   0.02632   0.01010  -0.0072  0.2500  0.2500  -1.5262   0.0000   0.2285
  -4.000  -0.4126   0.02579   0.00914  -0.0062  0.2500  0.2500  -1.3353   0.0000   0.2291
  -3.500  -0.3619   0.02535   0.00830  -0.0053  0.2500  0.2500  -1.1590   0.0000   0.2297
  -3.000  -0.3108   0.02499   0.00763  -0.0045  0.2500  0.2500  -1.0039   0.0000   0.2302
  -2.500  -0.2594   0.02470   0.00707  -0.0037  0.2500  0.2500  -0.8649   0.0000   0.2306
  -2.000  -0.2078   0.02447   0.00660  -0.0029  0.2500  0.2500  -0.7438   0.0000   0.2309
  -1.500  -0.1560   0.02429   0.00626  -0.0022  0.2500  0.2500  -0.6399   0.0000   0.2311
  -1.000  -0.1041   0.02416   0.00601  -0.0014  0.2500  0.2500  -0.5525   0.0000   0.2313
  -0.500  -0.0521   0.02409   0.00586  -0.0007  0.2500  0.2500  -0.4798   0.0000   0.2314
   0.000  -0.0000   0.02406   0.00582   0.0000  0.2500  0.2500  -0.4177   0.0000   0.4228
   0.500   0.0521   0.02409   0.00586   0.0007  0.2500  0.2500  -0.4798   0.0000   0.2314
   1.000   0.1041   0.02416   0.00601   0.0014  0.2500  0.2500  -0.5525   0.0000   0.2313
   1.500   0.1560   0.02429   0.00626   0.0022  0.2500  0.2500  -0.6399   0.0000   0.2311
   2.000   0.2078   0.02447   0.00660   0.0029  0.2500  0.2500  -0.7438   0.0000   0.2309
   2.500   0.2594   0.02470   0.00707   0.0037  0.2500  0.2500  -0.8650   0.0000   0.2306
   3.000   0.3108   0.02499   0.00763   0.0045  0.2500  0.2500  -1.0039   0.0000   0.2302
   3.500   0.3619   0.02535   0.00830   0.0053  0.2500  0.2500  -1.1591   0.0000   0.2297
   4.000   0.4126   0.02579   0.00914   0.0062  0.2500  0.2500  -1.3354   0.0000   0.2292
   4.500   0.4629   0.02632   0.01009   0.0072  0.2500  0.2500  -1.5263   0.0000   0.2285
   5.000   0.5131   0.02696   0.01127   0.0081  0.2500  0.2500  -1.7323   0.0000   0.2278
   5.500   0.5631   0.02778   0.01265   0.0091  0.2500  0.2500  -1.9524   0.0000   0.2272
   6.000   0.6132   0.02895   0.01443   0.0102  0.2500  0.2500  -2.1839   0.0000   0.2264
   6.500   0.6641   0.03113   0.01701   0.0115  0.2396  0.2500  -2.4010   0.0000   0.2255
   7.000   0.7046   0.03342   0.01933   0.0134  0.1936  0.2500  -2.6224   0.0000   0.2233
   7.500   0.7453   0.03608   0.02212   0.0152  0.1610  0.2500  -2.8533   0.0000   0.2215
   8.000   0.7852   0.03906   0.02534   0.0170  0.1371  0.2500  -3.0755   0.0000   0.2199
   8.500   0.8245   0.04246   0.02901   0.0187  0.1206  0.2500  -3.2892   0.0000   0.2184
   9.000   0.8541   0.04676   0.03400   0.0209  0.1068  0.2500  -3.4529   0.0000   0.2162
   9.500   0.8847   0.05122   0.03872   0.0227  0.0984  0.2500  -3.6674   0.0000   0.2144
  10.000   0.8876   0.05796   0.04633   0.0255  0.0927  0.2500  -3.7138   0.0000   0.2109
  10.500   0.8681   0.06545   0.05448   0.0280  0.0881  0.2500  -3.6791   0.0000   0.2068
  11.000   0.8193   0.07614   0.06559   0.0267  0.0870  0.2500  -3.4920   0.0000   0.2056
  11.500   0.7352   0.09864   0.08822   0.0120  0.0897  0.2500  -2.9498   0.0000   0.2212
  12.000   0.6974   0.11669   0.10617   0.0018  0.0881  0.2500  -2.6123   0.0000   0.2347
  12.500   0.6823   0.12950   0.11893  -0.0042  0.0866  0.2500  -2.4382   0.0000   0.2430
  13.000   0.6739   0.14102   0.13042  -0.0093  0.0862  0.2500  -2.2986   0.0000   0.2502
  13.500   0.6715   0.15146   0.14085  -0.0137  0.0857  0.2500  -2.1928   0.0000   0.2565
  14.000   0.6788   0.15947   0.14889  -0.0164  0.0821  0.2500  -2.1835   0.0000   0.2597
  14.500   0.6961   0.16580   0.15531  -0.0168  0.0774  0.2500  -2.2848   0.0000   0.2590
  15.000   0.7038   0.17546   0.16500  -0.0201  0.0778  0.2500  -2.2320   0.0000   0.2630
  16.000   0.6957   0.19697   0.18649  -0.0337  0.0913  0.2500  -1.8508   0.0000   0.2821
  16.500   0.7103   0.20579   0.19537  -0.0365  0.0945  0.2500  -1.8518   0.0000   0.2845
  18.000   0.7596   0.23830   0.22813  -0.0464  0.1181  0.2500  -1.7771   0.0000   0.2929
  18.500   0.7623   0.24159   0.23140  -0.0520  0.1171  0.2500  -1.6988   0.0000   0.2991
  19.000   0.7679   0.24458   0.23441  -0.0580  0.1110  0.2500  -1.6271   0.0000   0.3055
  19.500   0.7844   0.25119   0.24109  -0.0611  0.1031  0.2500  -1.6643   0.0000   0.3071
  20.000   0.8208   0.27208   0.26214  -0.0591  0.0973  0.2500  -1.8605   0.0000   0.3009


