xflr5 v6.42

 Calculated polar for: NACA_0012

 1 1 Reynolds number fixed          Mach number fixed         

 xtrf =   0.250 (top)        0.250 (bottom)
 Mach =   0.000     Re =     0.025 e 6     Ncrit =   5.000

  alpha     CL        CD       CDp       Cm    Top Xtr Bot Xtr   Cpmin    Chinge    XCp    
 ------- -------- --------- --------- -------- ------- ------- -------- --------- ---------
 -10.000  -0.7937   0.07719   0.06445  -0.0227  0.2500  0.1403  -3.0203   0.0000   0.2114
  -9.500  -0.8035   0.06857   0.05556  -0.0223  0.2500  0.1456  -3.0350   0.0000   0.2127
  -9.000  -0.7995   0.06161   0.04817  -0.0210  0.2500  0.1559  -2.9977   0.0000   0.2147
  -8.500  -0.7890   0.05511   0.04109  -0.0193  0.2500  0.1711  -2.9354   0.0000   0.2169
  -8.000  -0.7652   0.04941   0.03468  -0.0176  0.2500  0.1909  -2.8290   0.0000   0.2187
  -7.500  -0.7300   0.04559   0.03064  -0.0156  0.2500  0.2204  -2.6416   0.0000   0.2208
  -7.000  -0.6877   0.04131   0.02599  -0.0143  0.2500  0.2500  -2.4568   0.0000   0.2218
  -6.500  -0.6328   0.03716   0.02107  -0.0138  0.2500  0.2500  -2.2787   0.0000   0.2208
  -6.000  -0.5859   0.03514   0.01829  -0.0124  0.2500  0.2500  -2.0705   0.0000   0.2218
  -5.500  -0.5397   0.03378   0.01625  -0.0110  0.2500  0.2500  -1.8537   0.0000   0.2228
  -5.000  -0.4930   0.03273   0.01457  -0.0097  0.2500  0.2500  -1.6579   0.0000   0.2238
  -4.500  -0.4457   0.03187   0.01310  -0.0085  0.2500  0.2500  -1.4634   0.0000   0.2247
  -4.000  -0.3977   0.03115   0.01188  -0.0074  0.2500  0.2500  -1.2889   0.0000   0.2254
  -3.500  -0.3491   0.03055   0.01081  -0.0064  0.2500  0.2500  -1.1240   0.0000   0.2260
  -3.000  -0.3001   0.03005   0.00994  -0.0054  0.2500  0.2500  -0.9761   0.0000   0.2265
  -2.500  -0.2507   0.02965   0.00923  -0.0044  0.2500  0.2500  -0.8455   0.0000   0.2270
  -2.000  -0.2009   0.02933   0.00862  -0.0035  0.2500  0.2500  -0.7306   0.0000   0.2274
  -1.500  -0.1509   0.02909   0.00818  -0.0026  0.2500  0.2500  -0.6315   0.0000   0.2276
  -1.000  -0.1007   0.02892   0.00786  -0.0017  0.2500  0.2500  -0.5484   0.0000   0.2278
  -0.500  -0.0504   0.02881   0.00767  -0.0009  0.2500  0.2500  -0.4779   0.0000   0.2280
   0.000  -0.0000   0.02878   0.00761   0.0000  0.2500  0.2500  -0.4175   0.0000   0.4343
   0.500   0.0504   0.02881   0.00767   0.0009  0.2500  0.2500  -0.4779   0.0000   0.2280
   1.000   0.1007   0.02891   0.00786   0.0017  0.2500  0.2500  -0.5484   0.0000   0.2278
   1.500   0.1509   0.02909   0.00818   0.0026  0.2500  0.2500  -0.6315   0.0000   0.2277
   2.000   0.2009   0.02933   0.00862   0.0035  0.2500  0.2500  -0.7306   0.0000   0.2274
   2.500   0.2507   0.02965   0.00923   0.0044  0.2500  0.2500  -0.8455   0.0000   0.2270
   3.000   0.3001   0.03005   0.00994   0.0054  0.2500  0.2500  -0.9761   0.0000   0.2266
   3.500   0.3492   0.03055   0.01081   0.0064  0.2500  0.2500  -1.1241   0.0000   0.2261
   4.000   0.3977   0.03115   0.01188   0.0074  0.2500  0.2500  -1.2890   0.0000   0.2254
   4.500   0.4457   0.03186   0.01310   0.0085  0.2500  0.2500  -1.4636   0.0000   0.2247
   5.000   0.4931   0.03273   0.01457   0.0097  0.2500  0.2500  -1.6582   0.0000   0.2239
   5.500   0.5398   0.03378   0.01625   0.0110  0.2500  0.2500  -1.8540   0.0000   0.2229
   6.000   0.5861   0.03514   0.01828   0.0124  0.2500  0.2500  -2.0709   0.0000   0.2218
   6.500   0.6329   0.03716   0.02107   0.0138  0.2500  0.2500  -2.2791   0.0000   0.2208
   7.000   0.6879   0.04132   0.02600   0.0142  0.2500  0.2500  -2.4572   0.0000   0.2219
   7.500   0.7302   0.04559   0.03064   0.0156  0.2203  0.2500  -2.6422   0.0000   0.2209
   8.000   0.7655   0.04941   0.03468   0.0176  0.1908  0.2500  -2.8299   0.0000   0.2188
   8.500   0.7894   0.05511   0.04109   0.0192  0.1710  0.2500  -2.9364   0.0000   0.2170
   9.000   0.7999   0.06162   0.04818   0.0209  0.1559  0.2500  -2.9984   0.0000   0.2148
   9.500   0.8043   0.06857   0.05556   0.0222  0.1455  0.2500  -3.0371   0.0000   0.2128
  10.000   0.7940   0.07725   0.06452   0.0226  0.1402  0.2500  -3.0200   0.0000   0.2116
  10.500   0.7418   0.09062   0.07812   0.0180  0.1394  0.2500  -2.7756   0.0000   0.2151
  11.000   0.6984   0.10706   0.09453   0.0080  0.1383  0.2500  -2.4936   0.0000   0.2273
  11.500   0.6719   0.12107   0.10843   0.0002  0.1353  0.2500  -2.2881   0.0000   0.2381
  12.000   0.6605   0.13205   0.11935  -0.0050  0.1312  0.2500  -2.1760   0.0000   0.2454
  12.500   0.6564   0.14233   0.12961  -0.0093  0.1303  0.2500  -2.0904   0.0000   0.2515
  13.000   0.6556   0.15210   0.13939  -0.0133  0.1302  0.2500  -2.0167   0.0000   0.2572
  13.500   0.6588   0.16089   0.14820  -0.0167  0.1275  0.2500  -1.9714   0.0000   0.2619
  14.000   0.6732   0.16848   0.15587  -0.0183  0.1217  0.2500  -2.0051   0.0000   0.2631
  14.500   0.6693   0.17794   0.16531  -0.0237  0.1256  0.2500  -1.8794   0.0000   0.2708
  15.000   0.6734   0.18700   0.17438  -0.0280  0.1323  0.2500  -1.7959   0.0000   0.2766
  15.500   0.6910   0.19692   0.18443  -0.0305  0.1390  0.2500  -1.7922   0.0000   0.2788
  16.000   0.6854   0.20780   0.19536  -0.0400  0.2013  0.2500  -1.5723   0.0000   0.2926
  16.500   0.7070   0.21682   0.20454  -0.0416  0.1925  0.2500  -1.6249   0.0000   0.2925
  17.000   0.7286   0.22783   0.21566  -0.0438  0.1904  0.2500  -1.6594   0.0000   0.2934
  17.500   0.7455   0.23833   0.22619  -0.0468  0.1889  0.2500  -1.6685   0.0000   0.2954
  18.000   0.7448   0.23955   0.22737  -0.0517  0.1867  0.2500  -1.6075   0.0000   0.3012
  18.500   0.7529   0.24289   0.23072  -0.0559  0.1751  0.2500  -1.5854   0.0000   0.3051
  19.000   0.7883   0.26167   0.24971  -0.0555  0.1649  0.2500  -1.6896   0.0000   0.3011
  19.500   0.7898   0.26155   0.24956  -0.0610  0.1633  0.2500  -1.6213   0.0000   0.3069
  20.000   0.7974   0.26358   0.25160  -0.0663  0.1568  0.2500  -1.5969   0.0000   0.3118


