xflr5 v6.42

 Calculated polar for: NACA_6412

 1 1 Reynolds number fixed          Mach number fixed         

 xtrf =   0.250 (top)        0.250 (bottom)
 Mach =   0.000     Re =     0.550 e 6     Ncrit =   5.000

  alpha     CL        CD       CDp       Cm    Top Xtr Bot Xtr   Cpmin    Chinge    XCp    
 ------- -------- --------- --------- -------- ------- ------- -------- --------- ---------
 -10.000  -0.4356   0.02488   0.01828  -0.1406  0.2500  0.0150  -7.5726   0.0000  -0.0919
  -9.500  -0.3882   0.02248   0.01553  -0.1417  0.2500  0.0157  -7.1249   0.0000  -0.1346
  -9.000  -0.3379   0.02080   0.01356  -0.1422  0.2500  0.0165  -6.6475   0.0000  -0.1915
  -8.500  -0.2865   0.01935   0.01181  -0.1425  0.2500  0.0174  -6.1782   0.0000  -0.2699
  -8.000  -0.2340   0.01809   0.01025  -0.1427  0.2500  0.0184  -5.7157   0.0000  -0.3850
  -7.500  -0.1805   0.01711   0.00900  -0.1428  0.2500  0.0192  -5.2512   0.0000  -0.5710
  -7.000  -0.1269   0.01606   0.00776  -0.1430  0.2500  0.0210  -4.7996   0.0000  -0.9153
  -6.500  -0.0721   0.01548   0.00703  -0.1431  0.2500  0.0228  -4.3363   0.0000  -1.7947
  -6.000  -0.0172   0.01486   0.00624  -0.1431  0.2500  0.0245  -3.9022   0.0000  -8.3031
  -5.500   0.0379   0.01425   0.00545  -0.1431  0.2500  0.0263  -3.4865   0.0000   4.1220
  -5.000   0.0932   0.01380   0.00492  -0.1432  0.2500  0.0294  -3.0748   0.0000   1.8199
  -4.500   0.1488   0.01351   0.00451  -0.1432  0.2500  0.0325  -2.7160   0.0000   1.2310
  -4.000   0.2044   0.01311   0.00405  -0.1432  0.2500  0.0370  -2.3883   0.0000   0.9626
  -3.500   0.2601   0.01289   0.00375  -0.1432  0.2500  0.0415  -2.0670   0.0000   0.8086
  -3.000   0.3156   0.01266   0.00349  -0.1432  0.2500  0.0494  -1.7597   0.0000   0.7090
  -2.500   0.3712   0.01251   0.00329  -0.1431  0.2500  0.0576  -1.4918   0.0000   0.6391
  -2.000   0.4266   0.01239   0.00317  -0.1431  0.2500  0.0690  -1.2457   0.0000   0.5875
  -1.500   0.4820   0.01229   0.00309  -0.1431  0.2500  0.0853  -1.0123   0.0000   0.5477
  -1.000   0.5372   0.01222   0.00305  -0.1430  0.2500  0.1062  -0.8862   0.0000   0.5162
  -0.500   0.5923   0.01219   0.00306  -0.1430  0.2500  0.1311  -0.9332   0.0000   0.4905
   0.000   0.6472   0.01219   0.00311  -0.1429  0.2500  0.1609  -0.9804   0.0000   0.4691
   0.500   0.7018   0.01219   0.00320  -0.1428  0.2500  0.1990  -1.0277   0.0000   0.4511
   1.000   0.7562   0.01221   0.00333  -0.1426  0.2500  0.2469  -1.0751   0.0000   0.4356
   1.500   0.8102   0.01236   0.00345  -0.1423  0.2500  0.2500  -1.1227   0.0000   0.4220
   2.000   0.8639   0.01253   0.00360  -0.1420  0.2500  0.2500  -1.1703   0.0000   0.4101
   2.500   0.9171   0.01271   0.00378  -0.1416  0.2500  0.2500  -1.2207   0.0000   0.3995
   3.000   0.9698   0.01291   0.00399  -0.1411  0.2500  0.2500  -1.2720   0.0000   0.3900
   3.500   1.0219   0.01313   0.00424  -0.1406  0.2500  0.2500  -1.3233   0.0000   0.3814
   4.000   1.0735   0.01336   0.00451  -0.1399  0.2500  0.2500  -1.3745   0.0000   0.3736
   4.500   1.1244   0.01361   0.00481  -0.1392  0.2500  0.2500  -1.4262   0.0000   0.3664
   5.000   1.1746   0.01387   0.00516  -0.1383  0.2500  0.2500  -1.4805   0.0000   0.3597
   5.500   1.2238   0.01416   0.00552  -0.1373  0.2500  0.2500  -1.5397   0.0000   0.3535
   6.000   1.2716   0.01446   0.00593  -0.1361  0.2500  0.2500  -1.6020   0.0000   0.3476
   6.500   1.3165   0.01478   0.00637  -0.1342  0.2500  0.2500  -1.7210   0.0000   0.3418
   7.000   1.3608   0.01515   0.00686  -0.1324  0.2500  0.2500  -1.9214   0.0000   0.3364
   7.500   1.4060   0.01556   0.00743  -0.1308  0.2500  0.2500  -2.1548   0.0000   0.3314
   8.000   1.4503   0.01602   0.00804  -0.1291  0.2500  0.2500  -2.4021   0.0000   0.3266
   8.500   1.4937   0.01652   0.00871  -0.1274  0.2500  0.2500  -2.6768   0.0000   0.3221
   9.000   1.5326   0.01726   0.00959  -0.1250  0.2433  0.2500  -2.9542   0.0000   0.3175
   9.500   1.5461   0.01946   0.01151  -0.1190  0.1848  0.2500  -3.1776   0.0000   0.3121
  10.000   1.5517   0.02227   0.01403  -0.1125  0.1302  0.2500  -3.3850   0.0000   0.3068
  10.500   1.5601   0.02509   0.01671  -0.1070  0.0934  0.2500  -3.6056   0.0000   0.3020
  11.000   1.5702   0.02803   0.01960  -0.1023  0.0688  0.2500  -3.8360   0.0000   0.2977
  11.500   1.5800   0.03119   0.02277  -0.0982  0.0525  0.2500  -4.0687   0.0000   0.2937
  12.000   1.5895   0.03463   0.02626  -0.0946  0.0426  0.2500  -4.3036   0.0000   0.2901
  12.500   1.5985   0.03829   0.03003  -0.0914  0.0363  0.2500  -4.5418   0.0000   0.2867
  13.000   1.6058   0.04240   0.03428  -0.0887  0.0311  0.2500  -4.7985   0.0000   0.2837
  13.500   1.6109   0.04700   0.03900  -0.0864  0.0272  0.2500  -5.0491   0.0000   0.2811
  14.000   1.6125   0.05222   0.04436  -0.0844  0.0241  0.2500  -5.2830   0.0000   0.2787
  14.500   1.6156   0.05748   0.04981  -0.0830  0.0224  0.2500  -5.5272   0.0000   0.2766
  15.000   1.6146   0.06344   0.05592  -0.0818  0.0205  0.2500  -5.7521   0.0000   0.2748
  15.500   1.6095   0.07010   0.06275  -0.0810  0.0187  0.2500  -5.9535   0.0000   0.2733
  16.000   1.6045   0.07684   0.06968  -0.0806  0.0176  0.2500  -6.1536   0.0000   0.2720
  16.500   1.6006   0.08359   0.07664  -0.0804  0.0167  0.2500  -6.3611   0.0000   0.2709
  17.000   1.5951   0.09071   0.08394  -0.0807  0.0157  0.2500  -6.5591   0.0000   0.2700
  17.500   1.5873   0.09822   0.09162  -0.0813  0.0146  0.2500  -6.7427   0.0000   0.2694
  18.000   1.5767   0.10620   0.09976  -0.0822  0.0136  0.2500  -6.9197   0.0000   0.2692
  18.500   1.5653   0.11439   0.10813  -0.0836  0.0129  0.2500  -7.0888   0.0000   0.2692
  19.000   1.5595   0.12190   0.11586  -0.0852  0.0125  0.2500  -7.2956   0.0000   0.2691
  19.500   1.5548   0.12927   0.12342  -0.0870  0.0120  0.2500  -7.5070   0.0000   0.2692
  20.000   1.5483   0.13707   0.13141  -0.0894  0.0114  0.2500  -7.6995   0.0000   0.2696


