xflr5 v6.42

 Calculated polar for: NACA_0012

 1 1 Reynolds number fixed          Mach number fixed         

 xtrf =   0.250 (top)        0.250 (bottom)
 Mach =   0.000     Re =     0.010 e 6     Ncrit =   5.000

  alpha     CL        CD       CDp       Cm    Top Xtr Bot Xtr   Cpmin    Chinge    XCp    
 ------- -------- --------- --------- -------- ------- ------- -------- --------- ---------
 -10.000  -0.6256   0.11360   0.09486   0.0001  0.2500  0.2500  -2.0410   0.0000   0.2401
  -9.500  -0.6296   0.10293   0.08417  -0.0041  0.2500  0.2500  -2.1052   0.0000   0.2340
  -9.000  -0.6357   0.09171   0.07291  -0.0086  0.2500  0.2500  -2.1768   0.0000   0.2273
  -8.500  -0.6412   0.08099   0.06203  -0.0120  0.2500  0.2500  -2.2349   0.0000   0.2224
  -8.000  -0.6348   0.07138   0.05197  -0.0145  0.2500  0.2500  -2.2506   0.0000   0.2185
  -7.500  -0.6128   0.06400   0.04391  -0.0158  0.2500  0.2500  -2.1923   0.0000   0.2160
  -7.000  -0.5810   0.05886   0.03800  -0.0158  0.2500  0.2500  -2.0700   0.0000   0.2147
  -6.500  -0.5464   0.05518   0.03343  -0.0152  0.2500  0.2500  -1.9173   0.0000   0.2144
  -6.000  -0.5098   0.05234   0.02977  -0.0143  0.2500  0.2500  -1.7608   0.0000   0.2145
  -5.500  -0.4721   0.05011   0.02674  -0.0132  0.2500  0.2500  -1.6031   0.0000   0.2149
  -5.000  -0.4335   0.04825   0.02405  -0.0120  0.2500  0.2500  -1.4435   0.0000   0.2154
  -4.500  -0.3939   0.04670   0.02179  -0.0108  0.2500  0.2500  -1.2977   0.0000   0.2160
  -4.000  -0.3532   0.04538   0.01985  -0.0096  0.2500  0.2500  -1.1541   0.0000   0.2165
  -3.500  -0.3113   0.04429   0.01813  -0.0084  0.2500  0.2500  -1.0230   0.0000   0.2171
  -3.000  -0.2685   0.04339   0.01675  -0.0071  0.2500  0.2500  -0.9018   0.0000   0.2176
  -2.500  -0.2250   0.04266   0.01555  -0.0059  0.2500  0.2500  -0.7916   0.0000   0.2180
  -2.000  -0.1806   0.04209   0.01463  -0.0047  0.2500  0.2500  -0.6937   0.0000   0.2183
  -1.500  -0.1359   0.04166   0.01393  -0.0035  0.2500  0.2500  -0.6082   0.0000   0.2185
  -1.000  -0.0908   0.04135   0.01341  -0.0023  0.2500  0.2500  -0.5345   0.0000   0.2188
  -0.500  -0.0454   0.04117   0.01311  -0.0012  0.2500  0.2500  -0.4709   0.0000   0.2188
   0.000  -0.0000   0.04112   0.01301   0.0000  0.2500  0.2500  -0.4158   0.0000   0.4375
   0.500   0.0454   0.04117   0.01311   0.0012  0.2500  0.2500  -0.4709   0.0000   0.2188
   1.000   0.0908   0.04135   0.01341   0.0023  0.2500  0.2500  -0.5345   0.0000   0.2188
   1.500   0.1359   0.04166   0.01393   0.0035  0.2500  0.2500  -0.6083   0.0000   0.2186
   2.000   0.1807   0.04209   0.01463   0.0047  0.2500  0.2500  -0.6937   0.0000   0.2183
   2.500   0.2250   0.04266   0.01555   0.0059  0.2500  0.2500  -0.7916   0.0000   0.2180
   3.000   0.2686   0.04339   0.01674   0.0071  0.2500  0.2500  -0.9019   0.0000   0.2176
   3.500   0.3114   0.04429   0.01813   0.0083  0.2500  0.2500  -1.0231   0.0000   0.2171
   4.000   0.3533   0.04538   0.01985   0.0096  0.2500  0.2500  -1.1543   0.0000   0.2166
   4.500   0.3940   0.04669   0.02179   0.0108  0.2500  0.2500  -1.2980   0.0000   0.2160
   5.000   0.4337   0.04825   0.02404   0.0120  0.2500  0.2500  -1.4439   0.0000   0.2155
   5.500   0.4724   0.05010   0.02673   0.0132  0.2500  0.2500  -1.6037   0.0000   0.2150
   6.000   0.5101   0.05233   0.02977   0.0142  0.2500  0.2500  -1.7615   0.0000   0.2146
   6.500   0.5468   0.05517   0.03342   0.0151  0.2500  0.2500  -1.9182   0.0000   0.2145
   7.000   0.5814   0.05886   0.03800   0.0158  0.2500  0.2500  -2.0710   0.0000   0.2148
   7.500   0.6133   0.06399   0.04391   0.0157  0.2500  0.2500  -2.1935   0.0000   0.2161
   8.000   0.6354   0.07139   0.05198   0.0145  0.2500  0.2500  -2.2518   0.0000   0.2187
   8.500   0.6419   0.08100   0.06205   0.0119  0.2500  0.2500  -2.2364   0.0000   0.2226
   9.000   0.6366   0.09173   0.07293   0.0084  0.2500  0.2500  -2.1784   0.0000   0.2275
   9.500   0.6306   0.10297   0.08421   0.0039  0.2500  0.2500  -2.1068   0.0000   0.2342
  10.000   0.6268   0.11365   0.09491  -0.0003  0.2500  0.2500  -2.0427   0.0000   0.2404
  10.500   0.6248   0.12380   0.10508  -0.0040  0.2500  0.2500  -1.9853   0.0000   0.2460
  11.000   0.6244   0.13351   0.11481  -0.0076  0.2500  0.2500  -1.9326   0.0000   0.2513
  11.500   0.6256   0.14282   0.12415  -0.0109  0.2500  0.2500  -1.8846   0.0000   0.2561
  12.000   0.6282   0.15180   0.13324  -0.0141  0.2500  0.2500  -1.8399   0.0000   0.2607
  12.500   0.6321   0.16048   0.14195  -0.0172  0.2500  0.2500  -1.7982   0.0000   0.2651
  13.000   0.6372   0.16890   0.15041  -0.0203  0.2500  0.2500  -1.7730   0.0000   0.2692
  13.500   0.6434   0.17706   0.15860  -0.0233  0.2500  0.2500  -1.7517   0.0000   0.2730
  14.000   0.6506   0.18497   0.16656  -0.0263  0.2500  0.2500  -1.7318   0.0000   0.2767
  14.500   0.6588   0.19269   0.17432  -0.0293  0.2500  0.2500  -1.7127   0.0000   0.2802
  15.000   0.6680   0.20028   0.18196  -0.0323  0.2500  0.2500  -1.6942   0.0000   0.2836
  15.500   0.6781   0.20779   0.18952  -0.0354  0.2500  0.2500  -1.6760   0.0000   0.2868
  16.000   0.6892   0.21523   0.19707  -0.0385  0.2500  0.2500  -1.6577   0.0000   0.2900
  16.500   0.7010   0.22263   0.20451  -0.0417  0.2500  0.2500  -1.6390   0.0000   0.2930
  17.000   0.7135   0.22998   0.21190  -0.0451  0.2500  0.2500  -1.6401   0.0000   0.2960
  17.500   0.7265   0.23729   0.21924  -0.0484  0.2500  0.2500  -1.6410   0.0000   0.2989
  18.000   0.7399   0.24455   0.22654  -0.0519  0.2500  0.2500  -1.6406   0.0000   0.3017
  18.500   0.7538   0.25180   0.23384  -0.0554  0.2500  0.2500  -1.6389   0.0000   0.3044
  19.000   0.7681   0.25903   0.24111  -0.0591  0.2500  0.2500  -1.6356   0.0000   0.3070
  19.500   0.7826   0.26624   0.24845  -0.0627  0.2500  0.2500  -1.6309   0.0000   0.3096
  20.000   0.7974   0.27344   0.25570  -0.0665  0.2500  0.2500  -1.6247   0.0000   0.3120


