xflr5 v6.42

 Calculated polar for: NACA_0012

 1 1 Reynolds number fixed          Mach number fixed         

 xtrf =   0.250 (top)        0.250 (bottom)
 Mach =   0.000     Re =     0.020 e 6     Ncrit =   5.000

  alpha     CL        CD       CDp       Cm    Top Xtr Bot Xtr   Cpmin    Chinge    XCp    
 ------- -------- --------- --------- -------- ------- ------- -------- --------- ---------
 -10.000  -0.6923   0.09540   0.08173  -0.0107  0.2500  0.1818  -2.4104   0.0000   0.2246
  -9.500  -0.7360   0.08193   0.06823  -0.0165  0.2500  0.1849  -2.6221   0.0000   0.2183
  -9.000  -0.7757   0.06979   0.05554  -0.0189  0.2500  0.1893  -2.8034   0.0000   0.2168
  -8.500  -0.7549   0.06400   0.04959  -0.0172  0.2500  0.2075  -2.6931   0.0000   0.2188
  -8.000  -0.7394   0.05775   0.04288  -0.0157  0.2500  0.2299  -2.6111   0.0000   0.2208
  -7.500  -0.7121   0.05113   0.03565  -0.0149  0.2500  0.2500  -2.5129   0.0000   0.2214
  -7.000  -0.6646   0.04425   0.02775  -0.0154  0.2500  0.2500  -2.3918   0.0000   0.2192
  -6.500  -0.6170   0.04072   0.02347  -0.0144  0.2500  0.2500  -2.2122   0.0000   0.2193
  -6.000  -0.5720   0.03863   0.02057  -0.0130  0.2500  0.2500  -2.0090   0.0000   0.2201
  -5.500  -0.5270   0.03711   0.01834  -0.0117  0.2500  0.2500  -1.8052   0.0000   0.2210
  -5.000  -0.4816   0.03591   0.01647  -0.0104  0.2500  0.2500  -1.6157   0.0000   0.2219
  -4.500  -0.4356   0.03491   0.01482  -0.0092  0.2500  0.2500  -1.4288   0.0000   0.2227
  -4.000  -0.3888   0.03408   0.01346  -0.0080  0.2500  0.2500  -1.2616   0.0000   0.2233
  -3.500  -0.3414   0.03338   0.01225  -0.0070  0.2500  0.2500  -1.1039   0.0000   0.2238
  -3.000  -0.2935   0.03281   0.01127  -0.0059  0.2500  0.2500  -0.9601   0.0000   0.2242
  -2.500  -0.2450   0.03234   0.01046  -0.0049  0.2500  0.2500  -0.8334   0.0000   0.2245
  -2.000  -0.1963   0.03196   0.00978  -0.0040  0.2500  0.2500  -0.7221   0.0000   0.2246
  -1.500  -0.1475   0.03168   0.00929  -0.0029  0.2500  0.2500  -0.6266   0.0000   0.2249
  -1.000  -0.0984   0.03149   0.00892  -0.0020  0.2500  0.2500  -0.5456   0.0000   0.2251
  -0.500  -0.0493   0.03137   0.00871  -0.0010  0.2500  0.2500  -0.4766   0.0000   0.2252
   0.000  -0.0000   0.03133   0.00865   0.0000  0.2500  0.2500  -0.4173   0.0000   0.4377
   0.500   0.0493   0.03137   0.00871   0.0010  0.2500  0.2500  -0.4766   0.0000   0.2252
   1.000   0.0984   0.03149   0.00892   0.0020  0.2500  0.2500  -0.5456   0.0000   0.2251
   1.500   0.1475   0.03168   0.00929   0.0029  0.2500  0.2500  -0.6266   0.0000   0.2249
   2.000   0.1963   0.03196   0.00978   0.0040  0.2500  0.2500  -0.7222   0.0000   0.2246
   2.500   0.2451   0.03234   0.01046   0.0049  0.2500  0.2500  -0.8334   0.0000   0.2245
   3.000   0.2935   0.03281   0.01127   0.0059  0.2500  0.2500  -0.9601   0.0000   0.2243
   3.500   0.3415   0.03338   0.01224   0.0070  0.2500  0.2500  -1.1040   0.0000   0.2239
   4.000   0.3889   0.03408   0.01345   0.0080  0.2500  0.2500  -1.2617   0.0000   0.2234
   4.500   0.4357   0.03491   0.01482   0.0092  0.2500  0.2500  -1.4290   0.0000   0.2227
   5.000   0.4817   0.03591   0.01647   0.0104  0.2500  0.2500  -1.6159   0.0000   0.2220
   5.500   0.5271   0.03711   0.01834   0.0117  0.2500  0.2500  -1.8055   0.0000   0.2211
   6.000   0.5722   0.03863   0.02057   0.0130  0.2500  0.2500  -2.0094   0.0000   0.2202
   6.500   0.6172   0.04072   0.02347   0.0144  0.2500  0.2500  -2.2127   0.0000   0.2193
   7.000   0.6648   0.04425   0.02775   0.0153  0.2500  0.2500  -2.3922   0.0000   0.2193
   7.500   0.7123   0.05114   0.03566   0.0148  0.2500  0.2500  -2.5133   0.0000   0.2215
   8.000   0.7397   0.05776   0.04289   0.0156  0.2298  0.2500  -2.6116   0.0000   0.2209
   8.500   0.7552   0.06401   0.04960   0.0171  0.2074  0.2500  -2.6936   0.0000   0.2189
   9.000   0.7760   0.06982   0.05558   0.0188  0.1893  0.2500  -2.8034   0.0000   0.2169
   9.500   0.7364   0.08198   0.06828   0.0163  0.1849  0.2500  -2.6221   0.0000   0.2185
  10.000   0.6931   0.09546   0.08179   0.0105  0.1817  0.2500  -2.4110   0.0000   0.2249
  10.500   0.6689   0.10822   0.09447   0.0038  0.1756  0.2500  -2.2559   0.0000   0.2338
  11.000   0.6856   0.11473   0.10103   0.0045  0.1644  0.2500  -2.3288   0.0000   0.2325
  11.500   0.6694   0.12698   0.11320  -0.0016  0.1634  0.2500  -2.1892   0.0000   0.2409
  12.000   0.6586   0.13782   0.12399  -0.0066  0.1618  0.2500  -2.0814   0.0000   0.2482
  12.500   0.6514   0.14754   0.13367  -0.0112  0.1583  0.2500  -1.9941   0.0000   0.2548
  13.000   0.6506   0.15638   0.14251  -0.0149  0.1542  0.2500  -1.9392   0.0000   0.2600
  13.500   0.6539   0.16546   0.15161  -0.0186  0.1553  0.2500  -1.8871   0.0000   0.2651
  14.000   0.6601   0.17441   0.16060  -0.0221  0.1580  0.2500  -1.8427   0.0000   0.2696
  14.500   0.6663   0.18265   0.16887  -0.0254  0.1585  0.2500  -1.8022   0.0000   0.2738
  15.000   0.6738   0.19062   0.17688  -0.0288  0.1586  0.2500  -1.7644   0.0000   0.2779
  15.500   0.6788   0.19992   0.18624  -0.0341  0.1801  0.2500  -1.6662   0.0000   0.2849
  16.000   0.6835   0.21117   0.19764  -0.0424  0.2500  0.2500  -1.5295   0.0000   0.2962
  16.500   0.6959   0.21849   0.20507  -0.0456  0.2500  0.2500  -1.5307   0.0000   0.2991
  17.000   0.7309   0.23416   0.22090  -0.0465  0.2388  0.2500  -1.6168   0.0000   0.2970
  17.500   0.7261   0.23365   0.22033  -0.0509  0.2337  0.2500  -1.5599   0.0000   0.3025
  18.000   0.7384   0.23923   0.22597  -0.0541  0.2232  0.2500  -1.5613   0.0000   0.3049
  18.500   0.7640   0.25169   0.23858  -0.0557  0.2155  0.2500  -1.6089   0.0000   0.3041
  19.000   0.7771   0.25933   0.24622  -0.0592  0.2127  0.2500  -1.5985   0.0000   0.3067
  19.500   0.7819   0.25979   0.24671  -0.0640  0.2037  0.2500  -1.5585   0.0000   0.3113
  20.000   0.8081   0.27337   0.26047  -0.0651  0.1906  0.2500  -1.6279   0.0000   0.3095


