xflr5 v6.42

 Calculated polar for: NACA_0012

 1 1 Reynolds number fixed          Mach number fixed         

 xtrf =   0.250 (top)        0.250 (bottom)
 Mach =   0.000     Re =     0.005 e 6     Ncrit =   5.000

  alpha     CL        CD       CDp       Cm    Top Xtr Bot Xtr   Cpmin    Chinge    XCp    
 ------- -------- --------- --------- -------- ------- ------- -------- --------- ---------
 -10.000  -0.5731   0.12181   0.09434  -0.0023  0.2500  0.2500  -1.9220   0.0000   0.2353
  -9.500  -0.5613   0.11345   0.08578  -0.0048  0.2500  0.2500  -1.9177   0.0000   0.2310
  -9.000  -0.5476   0.10546   0.07753  -0.0071  0.2500  0.2500  -1.8977   0.0000   0.2269
  -8.500  -0.5312   0.09804   0.06978  -0.0091  0.2500  0.2500  -1.8571   0.0000   0.2231
  -8.000  -0.5115   0.09142   0.06261  -0.0106  0.2500  0.2500  -1.7925   0.0000   0.2198
  -7.500  -0.4887   0.08565   0.05635  -0.0116  0.2500  0.2500  -1.7088   0.0000   0.2171
  -7.000  -0.4636   0.08067   0.05083  -0.0122  0.2500  0.2500  -1.6183   0.0000   0.2149
  -6.500  -0.4363   0.07623   0.04584  -0.0126  0.2500  0.2500  -1.5154   0.0000   0.2125
  -6.000  -0.4084   0.07220   0.04116  -0.0131  0.2500  0.2500  -1.4080   0.0000   0.2097
  -5.500  -0.3805   0.06874   0.03716  -0.0132  0.2500  0.2500  -1.3074   0.0000   0.2074
  -5.000  -0.3527   0.06583   0.03372  -0.0128  0.2500  0.2500  -1.2024   0.0000   0.2061
  -4.500  -0.3243   0.06341   0.03077  -0.0119  0.2500  0.2500  -1.1017   0.0000   0.2060
  -4.000  -0.2942   0.06142   0.02817  -0.0107  0.2500  0.2500  -1.0005   0.0000   0.2066
  -3.500  -0.2621   0.05980   0.02602  -0.0093  0.2500  0.2500  -0.9045   0.0000   0.2075
  -3.000  -0.2275   0.05846   0.02420  -0.0080  0.2500  0.2500  -0.8108   0.0000   0.2080
  -2.500  -0.1914   0.05738   0.02261  -0.0067  0.2500  0.2500  -0.7235   0.0000   0.2083
  -2.000  -0.1542   0.05654   0.02138  -0.0054  0.2500  0.2500  -0.6456   0.0000   0.2085
  -1.500  -0.1163   0.05590   0.02044  -0.0041  0.2500  0.2500  -0.5757   0.0000   0.2085
  -1.000  -0.0778   0.05545   0.01974  -0.0028  0.2500  0.2500  -0.5137   0.0000   0.2085
  -0.500  -0.0390   0.05519   0.01934  -0.0014  0.2500  0.2500  -0.4592   0.0000   0.2086
   0.000  -0.0000   0.05510   0.01921   0.0000  0.2500  0.2500  -0.4112   0.0000   0.4143
   0.500   0.0390   0.05519   0.01934   0.0014  0.2500  0.2500  -0.4592   0.0000   0.2086
   1.000   0.0778   0.05545   0.01974   0.0027  0.2500  0.2500  -0.5138   0.0000   0.2086
   1.500   0.1163   0.05590   0.02044   0.0041  0.2500  0.2500  -0.5757   0.0000   0.2085
   2.000   0.1543   0.05653   0.02138   0.0054  0.2500  0.2500  -0.6457   0.0000   0.2085
   2.500   0.1915   0.05738   0.02260   0.0067  0.2500  0.2500  -0.7236   0.0000   0.2084
   3.000   0.2276   0.05846   0.02419   0.0080  0.2500  0.2500  -0.8110   0.0000   0.2081
   3.500   0.2622   0.05979   0.02601   0.0093  0.2500  0.2500  -0.9047   0.0000   0.2076
   4.000   0.2945   0.06142   0.02816   0.0107  0.2500  0.2500  -1.0009   0.0000   0.2067
   4.500   0.3246   0.06341   0.03076   0.0119  0.2500  0.2500  -1.1022   0.0000   0.2061
   5.000   0.3531   0.06582   0.03370   0.0127  0.2500  0.2500  -1.2031   0.0000   0.2063
   5.500   0.3809   0.06872   0.03714   0.0131  0.2500  0.2500  -1.3082   0.0000   0.2076
   6.000   0.4089   0.07218   0.04114   0.0130  0.2500  0.2500  -1.4090   0.0000   0.2099
   6.500   0.4368   0.07622   0.04583   0.0126  0.2500  0.2500  -1.5166   0.0000   0.2127
   7.000   0.4642   0.08065   0.05081   0.0121  0.2500  0.2500  -1.6196   0.0000   0.2151
   7.500   0.4894   0.08564   0.05634   0.0115  0.2500  0.2500  -1.7103   0.0000   0.2173
   8.000   0.5123   0.09141   0.06261   0.0105  0.2500  0.2500  -1.7942   0.0000   0.2200
   8.500   0.5321   0.09805   0.06978   0.0090  0.2500  0.2500  -1.8589   0.0000   0.2233
   9.000   0.5485   0.10547   0.07754   0.0070  0.2500  0.2500  -1.8996   0.0000   0.2271
   9.500   0.5623   0.11348   0.08581   0.0047  0.2500  0.2500  -1.9195   0.0000   0.2313
  10.000   0.5741   0.12185   0.09438   0.0021  0.2500  0.2500  -1.9238   0.0000   0.2356
  10.500   0.5847   0.13041   0.10311  -0.0006  0.2500  0.2500  -1.9272   0.0000   0.2400
  11.000   0.5944   0.13906   0.11188  -0.0035  0.2500  0.2500  -1.9242   0.0000   0.2445
  11.500   0.6035   0.14769   0.12062  -0.0064  0.2500  0.2500  -1.9142   0.0000   0.2489
  12.000   0.6123   0.15625   0.12936  -0.0094  0.2500  0.2500  -1.8993   0.0000   0.2532
  12.500   0.6210   0.16470   0.13790  -0.0125  0.2500  0.2500  -1.8808   0.0000   0.2575
  13.000   0.6298   0.17305   0.14631  -0.0155  0.2500  0.2500  -1.8597   0.0000   0.2616
  13.500   0.6391   0.18125   0.15457  -0.0186  0.2500  0.2500  -1.8374   0.0000   0.2656
  14.000   0.6487   0.18929   0.16267  -0.0217  0.2500  0.2500  -1.8277   0.0000   0.2695
  14.500   0.6587   0.19713   0.17056  -0.0248  0.2500  0.2500  -1.8189   0.0000   0.2732
  15.000   0.6691   0.20477   0.17826  -0.0280  0.2500  0.2500  -1.8092   0.0000   0.2768
  15.500   0.6800   0.21230   0.18594  -0.0311  0.2500  0.2500  -1.7986   0.0000   0.2802
  16.000   0.6915   0.21974   0.19344  -0.0344  0.2500  0.2500  -1.7874   0.0000   0.2836
  16.500   0.7035   0.22710   0.20086  -0.0376  0.2500  0.2500  -1.7754   0.0000   0.2868
  17.000   0.7161   0.23440   0.20822  -0.0410  0.2500  0.2500  -1.7625   0.0000   0.2899
  17.500   0.7290   0.24164   0.21553  -0.0444  0.2500  0.2500  -1.7489   0.0000   0.2929
  18.000   0.7424   0.24883   0.22279  -0.0479  0.2500  0.2500  -1.7527   0.0000   0.2959
  18.500   0.7561   0.25596   0.22999  -0.0514  0.2500  0.2500  -1.7556   0.0000   0.2987
  19.000   0.7701   0.26302   0.23723  -0.0550  0.2500  0.2500  -1.7570   0.0000   0.3015
  19.500   0.7842   0.27001   0.24430  -0.0587  0.2500  0.2500  -1.7569   0.0000   0.3041
  20.000   0.7988   0.27719   0.25156  -0.0624  0.2500  0.2500  -1.7557   0.0000   0.3067


