xflr5 v6.42

 Calculated polar for: SD8020

 1 1 Reynolds number fixed          Mach number fixed         

 xtrf =   0.250 (top)        0.250 (bottom)
 Mach =   0.000     Re =     1.500 e 6     Ncrit =   5.000

  alpha     CL        CD       CDp       Cm    Top Xtr Bot Xtr   Cpmin    Chinge    XCp    
 ------- -------- --------- --------- -------- ------- ------- -------- --------- ---------
 -10.000  -1.0920   0.01535   0.00826  -0.0022  0.2500  0.0059  -8.3046   0.0000   0.2382
  -9.500  -1.0422   0.01458   0.00742  -0.0016  0.2500  0.0076  -7.5478   0.0000   0.2393
  -9.000  -0.9909   0.01397   0.00672  -0.0011  0.2500  0.0084  -6.8071   0.0000   0.2403
  -8.500  -0.9387   0.01343   0.00609  -0.0007  0.2500  0.0087  -6.0912   0.0000   0.2413
  -8.000  -0.8866   0.01278   0.00535  -0.0002  0.2500  0.0107  -5.4263   0.0000   0.2423
  -7.500  -0.8340   0.01220   0.00471   0.0001  0.2500  0.0131  -4.7743   0.0000   0.2433
  -7.000  -0.7804   0.01175   0.00420   0.0004  0.2500  0.0148  -4.1491   0.0000   0.2440
  -6.500  -0.7268   0.01124   0.00369   0.0006  0.2500  0.0210  -3.5638   0.0000   0.2449
  -6.000  -0.6730   0.01072   0.00321   0.0008  0.2500  0.0325  -3.0110   0.0000   0.2457
  -5.500  -0.6185   0.01030   0.00279   0.0010  0.2500  0.0462  -2.4924   0.0000   0.2464
  -5.000  -0.5635   0.00994   0.00245   0.0010  0.2500  0.0588  -2.1304   0.0000   0.2471
  -4.500  -0.5083   0.00958   0.00215   0.0011  0.2500  0.0773  -1.7992   0.0000   0.2477
  -4.000  -0.4533   0.00918   0.00186   0.0011  0.2500  0.1090  -1.4855   0.0000   0.2483
  -3.500  -0.3979   0.00883   0.00161   0.0011  0.2500  0.1439  -1.2200   0.0000   0.2489
  -3.000  -0.3419   0.00856   0.00141   0.0010  0.2500  0.1733  -1.0202   0.0000   0.2493
  -2.500  -0.2861   0.00824   0.00125   0.0010  0.2500  0.2172  -0.8671   0.0000   0.2499
  -2.000  -0.2297   0.00804   0.00112   0.0008  0.2500  0.2500  -0.7436   0.0000   0.2503
  -1.500  -0.1723   0.00801   0.00105   0.0006  0.2500  0.2500  -0.6241   0.0000   0.2505
  -1.000  -0.1149   0.00799   0.00100   0.0004  0.2500  0.2500  -0.5256   0.0000   0.2505
  -0.500  -0.0574   0.00798   0.00097   0.0002  0.2500  0.2500  -0.4432   0.0000   0.2505
   0.000   0.0000   0.00798   0.00096  -0.0000  0.2500  0.2500  -0.3724   0.0000   1.0966
   0.500   0.0575   0.00798   0.00097  -0.0002  0.2500  0.2500  -0.4433   0.0000   0.2508
   1.000   0.1149   0.00799   0.00100  -0.0004  0.2500  0.2500  -0.5257   0.0000   0.2507
   1.500   0.1723   0.00801   0.00105  -0.0007  0.2500  0.2500  -0.6233   0.0000   0.2506
   2.000   0.2297   0.00804   0.00112  -0.0009  0.2500  0.2500  -0.7427   0.0000   0.2504
   2.500   0.2861   0.00825   0.00125  -0.0010  0.2170  0.2500  -0.8673   0.0000   0.2499
   3.000   0.3419   0.00855   0.00141  -0.0011  0.1734  0.2500  -1.0206   0.0000   0.2494
   3.500   0.3979   0.00883   0.00161  -0.0011  0.1441  0.2500  -1.2209   0.0000   0.2489
   4.000   0.4533   0.00918   0.00186  -0.0011  0.1092  0.2500  -1.4839   0.0000   0.2483
   4.500   0.5083   0.00958   0.00214  -0.0011  0.0779  0.2500  -1.7975   0.0000   0.2477
   5.000   0.5635   0.00994   0.00245  -0.0011  0.0590  0.2500  -2.1285   0.0000   0.2471
   5.500   0.6185   0.01029   0.00279  -0.0010  0.0463  0.2500  -2.4912   0.0000   0.2464
   6.000   0.6730   0.01071   0.00320  -0.0009  0.0330  0.2500  -3.0099   0.0000   0.2457
   6.500   0.7268   0.01123   0.00368  -0.0006  0.0213  0.2500  -3.5626   0.0000   0.2449
   7.000   0.7804   0.01175   0.00420  -0.0004  0.0149  0.2500  -4.1473   0.0000   0.2441
   7.500   0.8341   0.01219   0.00471  -0.0001  0.0132  0.2500  -4.7724   0.0000   0.2433
   8.000   0.8867   0.01277   0.00535   0.0002  0.0108  0.2500  -5.4246   0.0000   0.2423
   8.500   0.9387   0.01343   0.00608   0.0007  0.0087  0.2500  -6.0891   0.0000   0.2413
   9.000   0.9908   0.01397   0.00671   0.0011  0.0084  0.2500  -6.8046   0.0000   0.2404
   9.500   1.0422   0.01457   0.00741   0.0016  0.0076  0.2500  -7.5449   0.0000   0.2393
  10.000   1.0920   0.01535   0.00826   0.0022  0.0058  0.2500  -8.3008   0.0000   0.2382
  10.500   1.1404   0.01624   0.00923   0.0030  0.0043  0.2500  -9.0635   0.0000   0.2369
  11.000   1.1882   0.01714   0.01022   0.0039  0.0037  0.2500  -9.8604   0.0000   0.2356
  11.500   1.2341   0.01818   0.01137   0.0049  0.0032  0.2500  -10.6569   0.0000   0.2341
  12.000   1.2778   0.01940   0.01271   0.0063  0.0027  0.2500  -11.4964   0.0000   0.2325
  12.500   1.3186   0.02081   0.01428   0.0079  0.0023  0.2500  -12.3789   0.0000   0.2306
  13.000   1.3554   0.02247   0.01619   0.0099  0.0021  0.2500  -13.2343   0.0000   0.2285
  13.500   1.3864   0.02445   0.01841   0.0125  0.0020  0.2500  -14.0477   0.0000   0.2260
  14.000   1.4083   0.02683   0.02106   0.0159  0.0019  0.2500  -14.7756   0.0000   0.2228
  14.500   1.4117   0.02973   0.02422   0.0212  0.0019  0.2500  -15.3079   0.0000   0.2183
  15.000   1.4065   0.03411   0.02890   0.0242  0.0018  0.2500  -15.7148   0.0000   0.2152
  15.500   1.3953   0.04051   0.03558   0.0235  0.0018  0.2500  -16.0166   0.0000   0.2145
  16.000   1.3740   0.05032   0.04568   0.0183  0.0018  0.2500  -16.1161   0.0000   0.2168
  16.500   1.3237   0.06706   0.06276   0.0075  0.0018  0.2500  -15.6568   0.0000   0.2232
  17.000   1.2468   0.08907   0.08505  -0.0047  0.0019  0.2500  -14.6703   0.0000   0.2318
  17.500   1.1616   0.11269   0.10887  -0.0167  0.0019  0.2500  -13.4319   0.0000   0.2417
  18.000   1.0824   0.13687   0.13323  -0.0292  0.0020  0.2500  -12.0994   0.0000   0.2537
  18.500   1.0129   0.16118   0.15770  -0.0417  0.0021  0.2500  -10.6904   0.0000   0.2678
  19.000   0.9685   0.18212   0.17876  -0.0528  0.0022  0.2500  -9.5634   0.0000   0.2810
  19.500   0.9316   0.20328   0.20005  -0.0637  0.0022  0.2500  -8.3027   0.0000   0.2951


