xflr5 v6.42

 Calculated polar for: SD8020

 1 1 Reynolds number fixed          Mach number fixed         

 xtrf =   0.250 (top)        0.250 (bottom)
 Mach =   0.000     Re =     0.075 e 6     Ncrit =   5.000

  alpha     CL        CD       CDp       Cm    Top Xtr Bot Xtr   Cpmin    Chinge    XCp    
 ------- -------- --------- --------- -------- ------- ------- -------- --------- ---------
 -10.000  -0.9212   0.05045   0.04148  -0.0211  0.2500  0.0358  -5.3763   0.0000   0.2179
  -9.500  -0.9102   0.04465   0.03476  -0.0183  0.2500  0.0385  -5.2531   0.0000   0.2211
  -9.000  -0.8885   0.03823   0.02784  -0.0159  0.2500  0.0422  -5.0573   0.0000   0.2238
  -8.500  -0.8540   0.03439   0.02354  -0.0138  0.2500  0.0481  -4.7178   0.0000   0.2260
  -8.000  -0.8155   0.03113   0.01973  -0.0119  0.2500  0.0593  -4.3338   0.0000   0.2281
  -7.500  -0.7743   0.02845   0.01668  -0.0100  0.2500  0.0742  -3.9319   0.0000   0.2302
  -7.000  -0.7323   0.02614   0.01422  -0.0084  0.2500  0.0985  -3.5055   0.0000   0.2321
  -6.500  -0.6885   0.02432   0.01235  -0.0071  0.2500  0.1335  -3.0593   0.0000   0.2338
  -6.000  -0.6427   0.02265   0.01064  -0.0057  0.2500  0.1718  -2.6410   0.0000   0.2356
  -5.500  -0.5956   0.02128   0.00920  -0.0045  0.2500  0.2246  -2.2703   0.0000   0.2372
  -5.000  -0.5450   0.02026   0.00789  -0.0035  0.2500  0.2500  -1.9687   0.0000   0.2387
  -4.500  -0.4917   0.01970   0.00684  -0.0028  0.2500  0.2500  -1.6679   0.0000   0.2398
  -4.000  -0.4380   0.01929   0.00594  -0.0023  0.2500  0.2500  -1.3976   0.0000   0.2406
  -3.500  -0.3838   0.01897   0.00526  -0.0018  0.2500  0.2500  -1.1637   0.0000   0.2412
  -3.000  -0.3295   0.01872   0.00471  -0.0015  0.2500  0.2500  -0.9810   0.0000   0.2418
  -2.500  -0.2748   0.01851   0.00420  -0.0011  0.2500  0.2500  -0.8445   0.0000   0.2422
  -2.000  -0.2200   0.01835   0.00384  -0.0009  0.2500  0.2500  -0.7260   0.0000   0.2425
  -1.500  -0.1650   0.01823   0.00357  -0.0007  0.2500  0.2500  -0.6150   0.0000   0.2426
  -1.000  -0.1100   0.01815   0.00335  -0.0004  0.2500  0.2500  -0.5210   0.0000   0.2426
  -0.500  -0.0549   0.01810   0.00324  -0.0003  0.2500  0.2500  -0.4425   0.0000   0.2422
   0.000   0.0000   0.01808   0.00320  -0.0000  0.2500  0.2500  -0.3750   0.0000   0.8208
   0.500   0.0549   0.01810   0.00324   0.0002  0.2500  0.2500  -0.4426   0.0000   0.2426
   1.000   0.1100   0.01815   0.00335   0.0004  0.2500  0.2500  -0.5212   0.0000   0.2428
   1.500   0.1650   0.01823   0.00357   0.0006  0.2500  0.2500  -0.6149   0.0000   0.2428
   2.000   0.2200   0.01835   0.00384   0.0009  0.2500  0.2500  -0.7254   0.0000   0.2426
   2.500   0.2749   0.01851   0.00420   0.0011  0.2500  0.2500  -0.8439   0.0000   0.2423
   3.000   0.3295   0.01872   0.00471   0.0014  0.2500  0.2500  -0.9816   0.0000   0.2418
   3.500   0.3839   0.01897   0.00526   0.0018  0.2500  0.2500  -1.1642   0.0000   0.2413
   4.000   0.4380   0.01929   0.00594   0.0022  0.2500  0.2500  -1.3981   0.0000   0.2406
   4.500   0.4918   0.01970   0.00684   0.0028  0.2500  0.2500  -1.6664   0.0000   0.2398
   5.000   0.5450   0.02026   0.00789   0.0035  0.2500  0.2500  -1.9671   0.0000   0.2388
   5.500   0.5956   0.02128   0.00920   0.0045  0.2246  0.2500  -2.2685   0.0000   0.2372
   6.000   0.6427   0.02265   0.01064   0.0057  0.1716  0.2500  -2.6391   0.0000   0.2356
   6.500   0.6885   0.02431   0.01235   0.0070  0.1332  0.2500  -3.0583   0.0000   0.2338
   7.000   0.7323   0.02615   0.01422   0.0084  0.0985  0.2500  -3.5036   0.0000   0.2321
   7.500   0.7743   0.02845   0.01669   0.0100  0.0742  0.2500  -3.9305   0.0000   0.2302
   8.000   0.8156   0.03114   0.01974   0.0119  0.0595  0.2500  -4.3320   0.0000   0.2281
   8.500   0.8540   0.03439   0.02354   0.0138  0.0482  0.2500  -4.7173   0.0000   0.2260
   9.000   0.8886   0.03824   0.02785   0.0159  0.0423  0.2500  -5.0564   0.0000   0.2238
   9.500   0.9102   0.04465   0.03476   0.0183  0.0386  0.2500  -5.2537   0.0000   0.2211
  10.000   0.9214   0.05045   0.04148   0.0210  0.0359  0.2500  -5.3772   0.0000   0.2180
  10.500   0.9113   0.05705   0.04880   0.0235  0.0329  0.2500  -5.3981   0.0000   0.2145
  11.000   0.8751   0.06610   0.05835   0.0227  0.0323  0.2500  -5.2317   0.0000   0.2136
  11.500   0.8135   0.08426   0.07686   0.0095  0.0348  0.2500  -4.6932   0.0000   0.2272
  12.000   0.7594   0.10683   0.09941  -0.0050  0.0370  0.2500  -4.0024   0.0000   0.2452
  12.500   0.7297   0.12477   0.11724  -0.0139  0.0367  0.2500  -3.4881   0.0000   0.2575
  13.000   0.7143   0.13901   0.13139  -0.0206  0.0350  0.2500  -3.1352   0.0000   0.2672
  13.500   0.7087   0.15085   0.14318  -0.0258  0.0338  0.2500  -2.8964   0.0000   0.2745
  14.000   0.7081   0.16162   0.15392  -0.0303  0.0335  0.2500  -2.7018   0.0000   0.2805
  14.500   0.7110   0.17174   0.16402  -0.0345  0.0334  0.2500  -2.5348   0.0000   0.2859
  15.000   0.7162   0.18133   0.17359  -0.0386  0.0338  0.2500  -2.3874   0.0000   0.2909
  15.500   0.7241   0.19047   0.18274  -0.0425  0.0346  0.2500  -2.2635   0.0000   0.2951
  16.000   0.7335   0.19925   0.19152  -0.0463  0.0351  0.2500  -2.1884   0.0000   0.2991
  16.500   0.7429   0.20769   0.19995  -0.0508  0.0336  0.2500  -2.1203   0.0000   0.3038
  17.000   0.7545   0.21568   0.20795  -0.0549  0.0316  0.2500  -2.0883   0.0000   0.3077
  17.500   0.7675   0.22414   0.21641  -0.0586  0.0343  0.2500  -2.0481   0.0000   0.3107
  18.000   0.7821   0.23298   0.22532  -0.0624  0.0425  0.2500  -1.9704   0.0000   0.3137
  18.500   0.7962   0.24075   0.23311  -0.0665  0.0425  0.2500  -1.9499   0.0000   0.3167
  19.000   0.8118   0.24825   0.24065  -0.0699  0.0415  0.2500  -1.9749   0.0000   0.3186
  19.500   0.8289   0.25630   0.24874  -0.0725  0.0403  0.2500  -2.0335   0.0000   0.3194
  20.000   0.8523   0.27174   0.26437  -0.0723  0.0388  0.2500  -2.1735   0.0000   0.3162


