xflr5 v6.42

 Calculated polar for: SD8020

 1 1 Reynolds number fixed          Mach number fixed         

 xtrf =   0.250 (top)        0.250 (bottom)
 Mach =   0.000     Re =     1.000 e 6     Ncrit =   5.000

  alpha     CL        CD       CDp       Cm    Top Xtr Bot Xtr   Cpmin    Chinge    XCp    
 ------- -------- --------- --------- -------- ------- ------- -------- --------- ---------
 -10.000  -1.0818   0.01697   0.00962  -0.0037  0.2500  0.0074  -8.1484   0.0000   0.2368
  -9.500  -1.0324   0.01621   0.00870  -0.0030  0.2500  0.0084  -7.4077   0.0000   0.2379
  -9.000  -0.9821   0.01550   0.00788  -0.0024  0.2500  0.0089  -6.6869   0.0000   0.2390
  -8.500  -0.9324   0.01458   0.00683  -0.0016  0.2500  0.0110  -6.0242   0.0000   0.2403
  -8.000  -0.8811   0.01388   0.00606  -0.0011  0.2500  0.0130  -5.3599   0.0000   0.2413
  -7.500  -0.8286   0.01333   0.00538  -0.0007  0.2500  0.0147  -4.7112   0.0000   0.2422
  -7.000  -0.7762   0.01270   0.00470  -0.0003  0.2500  0.0197  -4.1075   0.0000   0.2432
  -6.500  -0.7230   0.01215   0.00412  -0.0000  0.2500  0.0262  -3.5299   0.0000   0.2440
  -6.000  -0.6698   0.01158   0.00359   0.0003  0.2500  0.0398  -2.9836   0.0000   0.2449
  -5.500  -0.6158   0.01110   0.00311   0.0005  0.2500  0.0553  -2.4714   0.0000   0.2456
  -5.000  -0.5614   0.01068   0.00272   0.0006  0.2500  0.0730  -2.1179   0.0000   0.2463
  -4.500  -0.5069   0.01024   0.00236   0.0007  0.2500  0.1012  -1.7901   0.0000   0.2470
  -4.000  -0.4522   0.00980   0.00205   0.0008  0.2500  0.1375  -1.4785   0.0000   0.2476
  -3.500  -0.3970   0.00946   0.00178   0.0008  0.2500  0.1702  -1.2176   0.0000   0.2482
  -3.000  -0.3415   0.00913   0.00156   0.0008  0.2500  0.2101  -1.0184   0.0000   0.2488
  -2.500  -0.2858   0.00884   0.00139   0.0008  0.2500  0.2500  -0.8655   0.0000   0.2493
  -2.000  -0.2287   0.00880   0.00126   0.0007  0.2500  0.2500  -0.7424   0.0000   0.2495
  -1.500  -0.1716   0.00877   0.00118   0.0005  0.2500  0.2500  -0.6232   0.0000   0.2497
  -1.000  -0.1144   0.00875   0.00112   0.0003  0.2500  0.2500  -0.5253   0.0000   0.2497
  -0.500  -0.0572   0.00873   0.00108   0.0002  0.2500  0.2500  -0.4432   0.0000   0.2497
   0.000   0.0000   0.00873   0.00107  -0.0000  0.2500  0.2500  -0.3727   0.0000   1.0231
   0.500   0.0572   0.00873   0.00108  -0.0002  0.2500  0.2500  -0.4434   0.0000   0.2501
   1.000   0.1144   0.00875   0.00112  -0.0003  0.2500  0.2500  -0.5254   0.0000   0.2499
   1.500   0.1716   0.00877   0.00118  -0.0005  0.2500  0.2500  -0.6224   0.0000   0.2498
   2.000   0.2287   0.00880   0.00126  -0.0007  0.2500  0.2500  -0.7415   0.0000   0.2496
   2.500   0.2858   0.00884   0.00139  -0.0008  0.2500  0.2500  -0.8658   0.0000   0.2494
   3.000   0.3415   0.00914   0.00156  -0.0009  0.2096  0.2500  -1.0187   0.0000   0.2488
   3.500   0.3970   0.00946   0.00178  -0.0009  0.1704  0.2500  -1.2184   0.0000   0.2482
   4.000   0.4523   0.00980   0.00205  -0.0008  0.1378  0.2500  -1.4770   0.0000   0.2477
   4.500   0.5069   0.01024   0.00236  -0.0008  0.1017  0.2500  -1.7884   0.0000   0.2470
   5.000   0.5614   0.01068   0.00272  -0.0006  0.0732  0.2500  -2.1160   0.0000   0.2463
   5.500   0.6158   0.01110   0.00311  -0.0005  0.0553  0.2500  -2.4702   0.0000   0.2456
   6.000   0.6697   0.01158   0.00359  -0.0003  0.0399  0.2500  -2.9823   0.0000   0.2449
   6.500   0.7231   0.01214   0.00412  -0.0000  0.0268  0.2500  -3.5287   0.0000   0.2440
   7.000   0.7762   0.01269   0.00469   0.0003  0.0200  0.2500  -4.1063   0.0000   0.2432
   7.500   0.8286   0.01333   0.00538   0.0007  0.0148  0.2500  -4.7092   0.0000   0.2422
   8.000   0.8811   0.01388   0.00605   0.0011  0.0131  0.2500  -5.3579   0.0000   0.2413
   8.500   0.9325   0.01457   0.00681   0.0016  0.0110  0.2500  -6.0225   0.0000   0.2403
   9.000   0.9822   0.01548   0.00785   0.0024  0.0089  0.2500  -6.6869   0.0000   0.2390
   9.500   1.0324   0.01620   0.00869   0.0030  0.0084  0.2500  -7.4055   0.0000   0.2380
  10.000   1.0818   0.01696   0.00961   0.0037  0.0074  0.2500  -8.1458   0.0000   0.2368
  10.500   1.1295   0.01789   0.01063   0.0045  0.0060  0.2500  -8.8948   0.0000   0.2355
  11.000   1.1733   0.01926   0.01213   0.0059  0.0044  0.2500  -9.5878   0.0000   0.2339
  11.500   1.2178   0.02037   0.01339   0.0071  0.0041  0.2500  -10.3738   0.0000   0.2324
  12.000   1.2596   0.02167   0.01486   0.0085  0.0036  0.2500  -11.1862   0.0000   0.2306
  12.500   1.2979   0.02319   0.01657   0.0103  0.0033  0.2500  -12.0405   0.0000   0.2287
  13.000   1.3317   0.02495   0.01856   0.0125  0.0031  0.2500  -12.8693   0.0000   0.2264
  13.500   1.3593   0.02698   0.02080   0.0153  0.0029  0.2500  -13.6540   0.0000   0.2238
  14.000   1.3729   0.02931   0.02336   0.0197  0.0027  0.2500  -14.3029   0.0000   0.2199
  14.500   1.3796   0.03254   0.02683   0.0231  0.0026  0.2500  -14.8668   0.0000   0.2166
  15.000   1.3769   0.03731   0.03187   0.0243  0.0026  0.2500  -15.2953   0.0000   0.2147
  15.500   1.3640   0.04476   0.03962   0.0218  0.0025  0.2500  -15.5431   0.0000   0.2152
  16.000   1.3352   0.05673   0.05192   0.0144  0.0025  0.2500  -15.4807   0.0000   0.2192
  16.500   1.2766   0.07541   0.07095   0.0029  0.0025  0.2500  -14.8496   0.0000   0.2267
  17.000   1.1824   0.10060   0.09646  -0.0106  0.0027  0.2500  -13.5065   0.0000   0.2371
  17.500   1.0865   0.12729   0.12339  -0.0242  0.0028  0.2500  -11.9332   0.0000   0.2500
  18.000   1.0126   0.15197   0.14828  -0.0369  0.0029  0.2500  -10.5157   0.0000   0.2639
  18.500   0.9404   0.18009   0.17658  -0.0513  0.0031  0.2500  -8.6970   0.0000   0.2824
  19.000   0.8349   0.23326   0.22975  -0.0734  0.0025  0.2500  -3.7516   0.0000   0.3192
  19.500   0.8480   0.24108   0.23759  -0.0777  0.0023  0.2500  -3.7761   0.0000   0.3222
  20.000   0.8621   0.24823   0.24476  -0.0819  0.0021  0.2500  -3.8765   0.0000   0.3248


