xflr5 v6.42

 Calculated polar for: SD8020

 1 1 Reynolds number fixed          Mach number fixed         

 xtrf =   0.250 (top)        0.250 (bottom)
 Mach =   0.000     Re =     0.020 e 6     Ncrit =   5.000

  alpha     CL        CD       CDp       Cm    Top Xtr Bot Xtr   Cpmin    Chinge    XCp    
 ------- -------- --------- --------- -------- ------- ------- -------- --------- ---------
 -10.000  -0.7044   0.10243   0.09001  -0.0007  0.2500  0.1480  -2.7777   0.0000   0.2410
  -9.500  -0.7269   0.08980   0.07746  -0.0074  0.2500  0.1500  -2.9672   0.0000   0.2322
  -9.000  -0.7530   0.07834   0.06584  -0.0115  0.2500  0.1542  -3.1401   0.0000   0.2276
  -8.500  -0.7690   0.06817   0.05517  -0.0135  0.2500  0.1657  -3.2324   0.0000   0.2256
  -8.000  -0.7612   0.06023   0.04656  -0.0133  0.2500  0.1859  -3.1694   0.0000   0.2261
  -7.500  -0.7337   0.05343   0.03914  -0.0122  0.2500  0.2103  -2.9909   0.0000   0.2272
  -7.000  -0.7007   0.04838   0.03359  -0.0105  0.2500  0.2500  -2.7594   0.0000   0.2292
  -6.500  -0.6464   0.04132   0.02528  -0.0110  0.2500  0.2500  -2.5612   0.0000   0.2272
  -6.000  -0.5958   0.03785   0.02075  -0.0100  0.2500  0.2500  -2.2659   0.0000   0.2276
  -5.500  -0.5481   0.03586   0.01790  -0.0088  0.2500  0.2500  -1.9940   0.0000   0.2287
  -5.000  -0.5003   0.03447   0.01568  -0.0077  0.2500  0.2500  -1.7258   0.0000   0.2297
  -4.500  -0.4520   0.03339   0.01384  -0.0067  0.2500  0.2500  -1.4779   0.0000   0.2305
  -4.000  -0.4031   0.03252   0.01217  -0.0058  0.2500  0.2500  -1.2611   0.0000   0.2312
  -3.500  -0.3537   0.03180   0.01087  -0.0050  0.2500  0.2500  -1.0584   0.0000   0.2317
  -3.000  -0.3037   0.03121   0.00978  -0.0042  0.2500  0.2500  -0.9171   0.0000   0.2320
  -2.500  -0.2536   0.03075   0.00880  -0.0035  0.2500  0.2500  -0.8017   0.0000   0.2324
  -2.000  -0.2033   0.03038   0.00809  -0.0027  0.2500  0.2500  -0.6919   0.0000   0.2328
  -1.500  -0.1526   0.03010   0.00756  -0.0020  0.2500  0.2500  -0.5964   0.0000   0.2330
  -1.000  -0.1019   0.02991   0.00713  -0.0014  0.2500  0.2500  -0.5112   0.0000   0.2332
  -0.500  -0.0509   0.02979   0.00691  -0.0007  0.2500  0.2500  -0.4383   0.0000   0.2332
   0.000   0.0000   0.02975   0.00684  -0.0000  0.2500  0.2500  -0.3751   0.0000   0.8705
   0.500   0.0510   0.02979   0.00690   0.0007  0.2500  0.2500  -0.4382   0.0000   0.2336
   1.000   0.1019   0.02990   0.00713   0.0013  0.2500  0.2500  -0.5113   0.0000   0.2334
   1.500   0.1527   0.03010   0.00756   0.0020  0.2500  0.2500  -0.5963   0.0000   0.2332
   2.000   0.2033   0.03037   0.00809   0.0027  0.2500  0.2500  -0.6915   0.0000   0.2329
   2.500   0.2536   0.03074   0.00880   0.0035  0.2500  0.2500  -0.8013   0.0000   0.2325
   3.000   0.3038   0.03121   0.00978   0.0042  0.2500  0.2500  -0.9178   0.0000   0.2321
   3.500   0.3537   0.03180   0.01087   0.0050  0.2500  0.2500  -1.0591   0.0000   0.2318
   4.000   0.4031   0.03251   0.01217   0.0058  0.2500  0.2500  -1.2614   0.0000   0.2312
   4.500   0.4520   0.03339   0.01384   0.0067  0.2500  0.2500  -1.4782   0.0000   0.2306
   5.000   0.5003   0.03447   0.01568   0.0076  0.2500  0.2500  -1.7246   0.0000   0.2297
   5.500   0.5481   0.03586   0.01790   0.0088  0.2500  0.2500  -1.9928   0.0000   0.2287
   6.000   0.5958   0.03785   0.02075   0.0100  0.2500  0.2500  -2.2645   0.0000   0.2277
   6.500   0.6465   0.04132   0.02528   0.0110  0.2500  0.2500  -2.5595   0.0000   0.2273
   7.000   0.7008   0.04840   0.03361   0.0105  0.2500  0.2500  -2.7572   0.0000   0.2292
   7.500   0.7340   0.05338   0.03907   0.0122  0.2100  0.2500  -2.9930   0.0000   0.2271
   8.000   0.7616   0.06020   0.04652   0.0133  0.1857  0.2500  -3.1710   0.0000   0.2261
   8.500   0.7698   0.06808   0.05507   0.0135  0.1654  0.2500  -3.2378   0.0000   0.2256
   9.000   0.7533   0.07835   0.06585   0.0114  0.1541  0.2500  -3.1401   0.0000   0.2276
   9.500   0.7275   0.08981   0.07746   0.0073  0.1499  0.2500  -2.9685   0.0000   0.2323
  10.000   0.7052   0.10242   0.09001   0.0006  0.1479  0.2500  -2.7804   0.0000   0.2411
  10.500   0.6935   0.11418   0.10168  -0.0052  0.1458  0.2500  -2.6448   0.0000   0.2491
  11.000   0.7009   0.12313   0.11062  -0.0066  0.1396  0.2500  -2.6731   0.0000   0.2506
  11.500   0.6866   0.13434   0.12169  -0.0128  0.1372  0.2500  -2.5054   0.0000   0.2595
  12.000   0.6783   0.14413   0.13139  -0.0178  0.1325  0.2500  -2.3886   0.0000   0.2666
  12.500   0.6786   0.15316   0.14040  -0.0215  0.1280  0.2500  -2.3260   0.0000   0.2716
  13.000   0.6810   0.16259   0.14981  -0.0253  0.1293  0.2500  -2.2495   0.0000   0.2768
  13.500   0.6860   0.17188   0.15910  -0.0290  0.1323  0.2500  -2.1820   0.0000   0.2815
  14.000   0.6980   0.18162   0.16888  -0.0319  0.1373  0.2500  -2.1475   0.0000   0.2845
  15.500   0.7140   0.21024   0.19776  -0.0489  0.2231  0.2500  -1.7842   0.0000   0.3060
  16.000   0.7304   0.21844   0.20604  -0.0510  0.2117  0.2500  -1.7852   0.0000   0.3068
  16.500   0.7526   0.23029   0.21800  -0.0530  0.2085  0.2500  -1.7903   0.0000   0.3071
  17.000   0.7627   0.23754   0.22521  -0.0565  0.2067  0.2500  -1.7496   0.0000   0.3101
  17.500   0.7659   0.23992   0.22755  -0.0610  0.2013  0.2500  -1.6861   0.0000   0.3148
  18.000   0.7802   0.24674   0.23442  -0.0640  0.1921  0.2500  -1.6825   0.0000   0.3167
  18.500   0.8072   0.26250   0.25026  -0.0652  0.1847  0.2500  -1.7587   0.0000   0.3150
  19.000   0.8088   0.26122   0.24891  -0.0708  0.1786  0.2500  -1.7051   0.0000   0.3207
  19.500   0.8318   0.27350   0.26133  -0.0720  0.1638  0.2500  -1.7783   0.0000   0.3193
  20.000   0.8416   0.27767   0.26543  -0.0767  0.1600  0.2500  -1.7539   0.0000   0.3230


