xflr5 v6.42

 Calculated polar for: SD8020

 1 1 Reynolds number fixed          Mach number fixed         

 xtrf =   0.250 (top)        0.250 (bottom)
 Mach =   0.000     Re =     3.000 e 6     Ncrit =   5.000

  alpha     CL        CD       CDp       Cm    Top Xtr Bot Xtr   Cpmin    Chinge    XCp    
 ------- -------- --------- --------- -------- ------- ------- -------- --------- ---------
 -10.000  -1.1048   0.01335   0.00677  -0.0003  0.2500  0.0035  -8.4799   0.0000   0.2399
  -9.500  -1.0535   0.01271   0.00607   0.0002  0.2500  0.0042  -7.6990   0.0000   0.2410
  -9.000  -1.0016   0.01210   0.00543   0.0006  0.2500  0.0061  -6.9460   0.0000   0.2420
  -8.500  -0.9491   0.01155   0.00487   0.0009  0.2500  0.0080  -6.2166   0.0000   0.2430
  -8.000  -0.8954   0.01112   0.00440   0.0011  0.2500  0.0085  -5.5142   0.0000   0.2438
  -7.500  -0.8412   0.01074   0.00396   0.0013  0.2500  0.0089  -4.8442   0.0000   0.2446
  -7.000  -0.7869   0.01032   0.00351   0.0014  0.2500  0.0118  -4.2118   0.0000   0.2454
  -6.500  -0.7323   0.00993   0.00312   0.0015  0.2500  0.0143  -3.6108   0.0000   0.2461
  -6.000  -0.6773   0.00958   0.00275   0.0016  0.2500  0.0197  -3.0449   0.0000   0.2468
  -5.500  -0.6224   0.00917   0.00238   0.0017  0.2500  0.0309  -2.5198   0.0000   0.2475
  -5.000  -0.5669   0.00884   0.00209   0.0017  0.2500  0.0424  -2.1485   0.0000   0.2481
  -4.500  -0.5112   0.00853   0.00183   0.0016  0.2500  0.0554  -1.8135   0.0000   0.2487
  -4.000  -0.4552   0.00825   0.00161   0.0015  0.2500  0.0735  -1.4954   0.0000   0.2492
  -3.500  -0.3993   0.00793   0.00139   0.0015  0.2500  0.1050  -1.2229   0.0000   0.2498
  -3.000  -0.3430   0.00766   0.00122   0.0013  0.2500  0.1332  -1.0233   0.0000   0.2503
  -2.500  -0.2862   0.00747   0.00110   0.0012  0.2500  0.1558  -0.8683   0.0000   0.2506
  -2.000  -0.2296   0.00724   0.00097   0.0010  0.2500  0.1921  -0.7431   0.0000   0.2510
  -1.500  -0.1729   0.00702   0.00088   0.0008  0.2500  0.2316  -0.6246   0.0000   0.2514
  -1.000  -0.1156   0.00692   0.00083   0.0006  0.2500  0.2500  -0.5261   0.0000   0.2517
  -0.500  -0.0578   0.00691   0.00081   0.0003  0.2500  0.2500  -0.4432   0.0000   0.2517
   0.000   0.0000   0.00691   0.00080  -0.0000  0.2500  0.2500  -0.3720   0.0000   1.3140
   0.500   0.0578   0.00691   0.00081  -0.0003  0.2500  0.2500  -0.4433   0.0000   0.2520
   1.000   0.1156   0.00692   0.00083  -0.0006  0.2500  0.2500  -0.5263   0.0000   0.2518
   1.500   0.1729   0.00701   0.00088  -0.0008  0.2333  0.2500  -0.6238   0.0000   0.2515
   2.000   0.2296   0.00724   0.00097  -0.0010  0.1916  0.2500  -0.7422   0.0000   0.2511
   2.500   0.2863   0.00746   0.00110  -0.0012  0.1559  0.2500  -0.8686   0.0000   0.2507
   3.000   0.3430   0.00766   0.00122  -0.0014  0.1333  0.2500  -1.0236   0.0000   0.2503
   3.500   0.3993   0.00792   0.00139  -0.0015  0.1057  0.2500  -1.2239   0.0000   0.2498
   4.000   0.4552   0.00824   0.00161  -0.0016  0.0738  0.2500  -1.4938   0.0000   0.2493
   4.500   0.5112   0.00853   0.00183  -0.0016  0.0554  0.2500  -1.8117   0.0000   0.2487
   5.000   0.5669   0.00884   0.00209  -0.0017  0.0425  0.2500  -2.1465   0.0000   0.2482
   5.500   0.6225   0.00915   0.00238  -0.0017  0.0316  0.2500  -2.5191   0.0000   0.2476
   6.000   0.6773   0.00957   0.00275  -0.0016  0.0200  0.2500  -3.0438   0.0000   0.2468
   6.500   0.7323   0.00993   0.00311  -0.0015  0.0144  0.2500  -3.6092   0.0000   0.2461
   7.000   0.7869   0.01032   0.00350  -0.0014  0.0120  0.2500  -4.2102   0.0000   0.2454
   7.500   0.8411   0.01074   0.00396  -0.0013  0.0090  0.2500  -4.8427   0.0000   0.2446
   8.000   0.8953   0.01112   0.00439  -0.0011  0.0085  0.2500  -5.5119   0.0000   0.2438
   8.500   0.9490   0.01155   0.00486  -0.0009  0.0080  0.2500  -6.2139   0.0000   0.2430
   9.000   1.0016   0.01210   0.00543  -0.0006  0.0061  0.2500  -6.9427   0.0000   0.2420
   9.500   1.0535   0.01271   0.00607  -0.0002  0.0042  0.2500  -7.6954   0.0000   0.2410
  10.000   1.1048   0.01335   0.00677   0.0003  0.0035  0.2500  -8.4756   0.0000   0.2399
  10.500   1.1549   0.01409   0.00756   0.0010  0.0027  0.2500  -9.2716   0.0000   0.2387
  11.500   1.2526   0.01573   0.00938   0.0025  0.0018  0.2500  -10.8681   0.0000   0.2360
  12.000   1.3001   0.01660   0.01034   0.0035  0.0018  0.2500  -11.8348   0.0000   0.2347
  12.500   1.3461   0.01754   0.01142   0.0045  0.0018  0.2500  -12.8223   0.0000   0.2332
  13.000   1.3904   0.01857   0.01256   0.0058  0.0018  0.2500  -13.8273   0.0000   0.2316
  13.500   1.4325   0.01970   0.01381   0.0072  0.0018  0.2500  -14.8433   0.0000   0.2298
  14.000   1.4721   0.02095   0.01519   0.0090  0.0017  0.2500  -15.8615   0.0000   0.2279
  14.500   1.5084   0.02232   0.01670   0.0110  0.0017  0.2500  -16.8696   0.0000   0.2258
  15.000   1.5399   0.02386   0.01838   0.0136  0.0017  0.2500  -17.8473   0.0000   0.2234
  15.500   1.5592   0.02556   0.02022   0.0179  0.0017  0.2500  -18.6975   0.0000   0.2199
  16.000   1.5729   0.02779   0.02262   0.0218  0.0017  0.2500  -19.4846   0.0000   0.2165
  16.500   1.5804   0.03084   0.02584   0.0247  0.0017  0.2500  -20.1845   0.0000   0.2138
  17.000   1.5813   0.03520   0.03038   0.0257  0.0017  0.2500  -20.7745   0.0000   0.2120
  17.500   1.5733   0.04163   0.03702   0.0241  0.0016  0.2500  -21.1973   0.0000   0.2117
  18.000   1.5507   0.05146   0.04708   0.0192  0.0016  0.2500  -21.3309   0.0000   0.2134
  18.500   1.4964   0.06753   0.06344   0.0098  0.0016  0.2500  -20.8287   0.0000   0.2179
  19.000   1.3555   0.09944   0.09577  -0.0078  0.0017  0.2500  -18.5506   0.0000   0.2292
  19.500   1.1141   0.15478   0.15159  -0.0380  0.0017  0.2500  -13.6324   0.0000   0.2577


