xflr5 v6.42

 Calculated polar for: SD8020

 1 1 Reynolds number fixed          Mach number fixed         

 xtrf =   0.250 (top)        0.250 (bottom)
 Mach =   0.000     Re =     0.025 e 6     Ncrit =   5.000

  alpha     CL        CD       CDp       Cm    Top Xtr Bot Xtr   Cpmin    Chinge    XCp    
 ------- -------- --------- --------- -------- ------- ------- -------- --------- ---------
 -10.000  -0.7395   0.09092   0.07960  -0.0097  0.2500  0.1133  -3.2236   0.0000   0.2286
  -9.500  -0.7776   0.07839   0.06693  -0.0150  0.2500  0.1141  -3.4824   0.0000   0.2228
  -9.000  -0.8075   0.06711   0.05497  -0.0172  0.2500  0.1178  -3.6876   0.0000   0.2212
  -8.500  -0.7902   0.06064   0.04826  -0.0158  0.2500  0.1316  -3.5181   0.0000   0.2230
  -8.000  -0.7735   0.05304   0.03988  -0.0148  0.2500  0.1471  -3.4147   0.0000   0.2241
  -7.500  -0.7446   0.04789   0.03417  -0.0131  0.2500  0.1767  -3.1769   0.0000   0.2261
  -7.000  -0.7079   0.04312   0.02884  -0.0115  0.2500  0.2130  -2.9004   0.0000   0.2277
  -6.500  -0.6619   0.03862   0.02372  -0.0104  0.2500  0.2500  -2.6346   0.0000   0.2285
  -6.000  -0.6064   0.03466   0.01873  -0.0097  0.2500  0.2500  -2.3403   0.0000   0.2285
  -5.500  -0.5576   0.03274   0.01600  -0.0084  0.2500  0.2500  -2.0503   0.0000   0.2297
  -5.000  -0.5089   0.03148   0.01396  -0.0072  0.2500  0.2500  -1.7750   0.0000   0.2309
  -4.500  -0.4597   0.03053   0.01230  -0.0062  0.2500  0.2500  -1.5115   0.0000   0.2318
  -4.000  -0.4100   0.02976   0.01080  -0.0053  0.2500  0.2500  -1.2896   0.0000   0.2326
  -3.500  -0.3597   0.02914   0.00963  -0.0045  0.2500  0.2500  -1.0742   0.0000   0.2332
  -3.000  -0.3089   0.02863   0.00866  -0.0038  0.2500  0.2500  -0.9306   0.0000   0.2337
  -2.500  -0.2579   0.02822   0.00778  -0.0031  0.2500  0.2500  -0.8108   0.0000   0.2341
  -2.000  -0.2065   0.02790   0.00715  -0.0025  0.2500  0.2500  -0.6991   0.0000   0.2344
  -1.500  -0.1550   0.02766   0.00667  -0.0019  0.2500  0.2500  -0.6004   0.0000   0.2345
  -1.000  -0.1032   0.02749   0.00628  -0.0013  0.2500  0.2500  -0.5132   0.0000   0.2343
  -0.500  -0.0516   0.02739   0.00608  -0.0006  0.2500  0.2500  -0.4391   0.0000   0.2343
   0.000   0.0000   0.02736   0.00602  -0.0000  0.2500  0.2500  -0.3751   0.0000   0.8535
   0.500   0.0517   0.02739   0.00608   0.0006  0.2500  0.2500  -0.4390   0.0000   0.2347
   1.000   0.1033   0.02749   0.00628   0.0012  0.2500  0.2500  -0.5133   0.0000   0.2345
   1.500   0.1550   0.02766   0.00667   0.0018  0.2500  0.2500  -0.6003   0.0000   0.2346
   2.000   0.2066   0.02790   0.00715   0.0025  0.2500  0.2500  -0.6986   0.0000   0.2345
   2.500   0.2579   0.02822   0.00778   0.0031  0.2500  0.2500  -0.8104   0.0000   0.2342
   3.000   0.3090   0.02863   0.00866   0.0038  0.2500  0.2500  -0.9312   0.0000   0.2338
   3.500   0.3597   0.02914   0.00963   0.0045  0.2500  0.2500  -1.0749   0.0000   0.2333
   4.000   0.4100   0.02976   0.01080   0.0053  0.2500  0.2500  -1.2900   0.0000   0.2326
   4.500   0.4598   0.03052   0.01230   0.0062  0.2500  0.2500  -1.5118   0.0000   0.2318
   5.000   0.5089   0.03148   0.01396   0.0072  0.2500  0.2500  -1.7737   0.0000   0.2309
   5.500   0.5576   0.03274   0.01600   0.0083  0.2500  0.2500  -2.0489   0.0000   0.2298
   6.000   0.6065   0.03466   0.01873   0.0096  0.2500  0.2500  -2.3387   0.0000   0.2286
   6.500   0.6619   0.03863   0.02373   0.0104  0.2500  0.2500  -2.6327   0.0000   0.2286
   7.000   0.7078   0.04309   0.02880   0.0115  0.2127  0.2500  -2.9002   0.0000   0.2277
   7.500   0.7446   0.04790   0.03418   0.0131  0.1766  0.2500  -3.1756   0.0000   0.2261
   8.000   0.7736   0.05304   0.03987   0.0148  0.1470  0.2500  -3.4142   0.0000   0.2242
   8.500   0.7903   0.06064   0.04825   0.0158  0.1316  0.2500  -3.5179   0.0000   0.2230
   9.000   0.8080   0.06711   0.05496   0.0172  0.1179  0.2500  -3.6897   0.0000   0.2212
   9.500   0.7782   0.07840   0.06694   0.0150  0.1142  0.2500  -3.4841   0.0000   0.2229
  10.000   0.7403   0.09093   0.07962   0.0096  0.1134  0.2500  -3.2256   0.0000   0.2287
  10.500   0.7110   0.10563   0.09423   0.0001  0.1123  0.2500  -2.9420   0.0000   0.2412
  11.000   0.6936   0.11827   0.10673  -0.0070  0.1092  0.2500  -2.7425   0.0000   0.2510
  11.500   0.6855   0.12933   0.11771  -0.0121  0.1075  0.2500  -2.6084   0.0000   0.2581
  12.000   0.6817   0.13980   0.12812  -0.0165  0.1071  0.2500  -2.4954   0.0000   0.2644
  12.500   0.6809   0.14983   0.13813  -0.0207  0.1075  0.2500  -2.3954   0.0000   0.2702
  13.000   0.6827   0.15956   0.14783  -0.0247  0.1090  0.2500  -2.3054   0.0000   0.2755
  13.500   0.6864   0.16861   0.15688  -0.0284  0.1086  0.2500  -2.2329   0.0000   0.2804
  14.000   0.6938   0.17658   0.16486  -0.0313  0.1033  0.2500  -2.2059   0.0000   0.2837
  14.500   0.7176   0.18558   0.17407  -0.0309  0.0963  0.2500  -2.3175   0.0000   0.2812
  15.000   0.7064   0.19379   0.18219  -0.0391  0.1082  0.2500  -2.0469   0.0000   0.2930
  15.500   0.7147   0.20660   0.19512  -0.0466  0.1710  0.2500  -1.8185   0.0000   0.3026
  16.000   0.7256   0.21435   0.20289  -0.0502  0.1728  0.2500  -1.7721   0.0000   0.3060
  16.500   0.7397   0.22218   0.21076  -0.0531  0.1692  0.2500  -1.7483   0.0000   0.3081
  17.000   0.7748   0.23995   0.22866  -0.0531  0.1625  0.2500  -1.8143   0.0000   0.3047
  17.500   0.7710   0.23979   0.22842  -0.0587  0.1603  0.2500  -1.7290   0.0000   0.3113
  18.000   0.7799   0.24356   0.23219  -0.0627  0.1471  0.2500  -1.7237   0.0000   0.3149
  18.500   0.8056   0.25833   0.24704  -0.0634  0.1396  0.2500  -1.8131   0.0000   0.3128
  19.000   0.8106   0.25967   0.24834  -0.0691  0.1370  0.2500  -1.7561   0.0000   0.3185
  19.500   0.8224   0.26445   0.25312  -0.0737  0.1302  0.2500  -1.7412   0.0000   0.3221
  20.000   0.8392   0.27209   0.26083  -0.0769  0.1238  0.2500  -1.7666   0.0000   0.3233


