xflr5 v6.42

 Calculated polar for: SD8020

 1 1 Reynolds number fixed          Mach number fixed         

 xtrf =   0.250 (top)        0.250 (bottom)
 Mach =   0.000     Re =     0.800 e 6     Ncrit =   5.000

  alpha     CL        CD       CDp       Cm    Top Xtr Bot Xtr   Cpmin    Chinge    XCp    
 ------- -------- --------- --------- -------- ------- ------- -------- --------- ---------
 -10.000  -1.0744   0.01814   0.01062  -0.0047  0.2500  0.0080  -8.0344   0.0000   0.2358
  -9.500  -1.0257   0.01732   0.00963  -0.0040  0.2500  0.0086  -7.3055   0.0000   0.2370
  -9.000  -0.9781   0.01621   0.00835  -0.0030  0.2500  0.0103  -6.6424   0.0000   0.2384
  -8.500  -0.9284   0.01535   0.00740  -0.0023  0.2500  0.0122  -5.9685   0.0000   0.2396
  -8.000  -0.8773   0.01465   0.00658  -0.0017  0.2500  0.0140  -5.3099   0.0000   0.2406
  -7.500  -0.8254   0.01401   0.00580  -0.0013  0.2500  0.0163  -4.6736   0.0000   0.2416
  -7.000  -0.7737   0.01327   0.00503  -0.0007  0.2500  0.0222  -4.0808   0.0000   0.2426
  -6.500  -0.7212   0.01263   0.00438  -0.0003  0.2500  0.0324  -3.5111   0.0000   0.2435
  -6.000  -0.6681   0.01206   0.00381  -0.0000  0.2500  0.0474  -2.9683   0.0000   0.2444
  -5.500  -0.6142   0.01160   0.00332   0.0002  0.2500  0.0623  -2.4580   0.0000   0.2451
  -5.000  -0.5601   0.01113   0.00290   0.0004  0.2500  0.0832  -2.1101   0.0000   0.2458
  -4.500  -0.5060   0.01065   0.00251   0.0005  0.2500  0.1135  -1.7842   0.0000   0.2465
  -4.000  -0.4516   0.01018   0.00218   0.0006  0.2500  0.1545  -1.4741   0.0000   0.2472
  -3.000  -0.3414   0.00946   0.00166   0.0007  0.2500  0.2350  -1.0174   0.0000   0.2484
  -2.500  -0.2851   0.00931   0.00149   0.0007  0.2500  0.2500  -0.8643   0.0000   0.2488
  -2.000  -0.2281   0.00927   0.00136   0.0005  0.2500  0.2500  -0.7416   0.0000   0.2490
  -1.500  -0.1711   0.00923   0.00127   0.0004  0.2500  0.2500  -0.6227   0.0000   0.2492
  -1.000  -0.1141   0.00921   0.00120   0.0003  0.2500  0.2500  -0.5251   0.0000   0.2493
  -0.500  -0.0570   0.00919   0.00116   0.0001  0.2500  0.2500  -0.4433   0.0000   0.2492
   0.000   0.0000   0.00919   0.00115  -0.0000  0.2500  0.2500  -0.3729   0.0000   0.9921
   0.500   0.0571   0.00919   0.00116  -0.0002  0.2500  0.2500  -0.4434   0.0000   0.2496
   1.000   0.1141   0.00921   0.00120  -0.0003  0.2500  0.2500  -0.5252   0.0000   0.2494
   1.500   0.1711   0.00923   0.00127  -0.0004  0.2500  0.2500  -0.6219   0.0000   0.2493
   2.000   0.2281   0.00927   0.00136  -0.0006  0.2500  0.2500  -0.7408   0.0000   0.2491
   2.500   0.2851   0.00931   0.00149  -0.0007  0.2500  0.2500  -0.8639   0.0000   0.2489
   3.000   0.3415   0.00946   0.00166  -0.0007  0.2349  0.2500  -1.0178   0.0000   0.2485
   4.000   0.4517   0.01018   0.00218  -0.0007  0.1547  0.2500  -1.4726   0.0000   0.2473
   4.500   0.5060   0.01065   0.00251  -0.0005  0.1136  0.2500  -1.7825   0.0000   0.2466
   5.000   0.5601   0.01112   0.00290  -0.0004  0.0838  0.2500  -2.1083   0.0000   0.2459
   5.500   0.6142   0.01160   0.00332  -0.0002  0.0624  0.2500  -2.4570   0.0000   0.2452
   6.000   0.6681   0.01206   0.00381   0.0000  0.0474  0.2500  -2.9670   0.0000   0.2444
   6.500   0.7212   0.01263   0.00437   0.0003  0.0328  0.2500  -3.5098   0.0000   0.2436
   7.000   0.7738   0.01326   0.00503   0.0007  0.0224  0.2500  -4.0794   0.0000   0.2426
   7.500   0.8254   0.01400   0.00578   0.0012  0.0165  0.2500  -4.6733   0.0000   0.2416
   8.000   0.8773   0.01464   0.00657   0.0017  0.0141  0.2500  -5.3081   0.0000   0.2406
   8.500   0.9284   0.01534   0.00739   0.0023  0.0123  0.2500  -5.9668   0.0000   0.2396
   9.000   0.9781   0.01619   0.00833   0.0030  0.0103  0.2500  -6.6411   0.0000   0.2384
   9.500   1.0257   0.01731   0.00961   0.0039  0.0086  0.2500  -7.3040   0.0000   0.2370
  10.000   1.0745   0.01812   0.01060   0.0047  0.0080  0.2500  -8.0325   0.0000   0.2359
  10.500   1.1214   0.01910   0.01174   0.0056  0.0068  0.2500  -8.7632   0.0000   0.2345
  11.000   1.1659   0.02030   0.01304   0.0068  0.0056  0.2500  -9.4903   0.0000   0.2330
  11.500   1.2036   0.02222   0.01520   0.0088  0.0044  0.2500  -10.1014   0.0000   0.2309
  12.000   1.2433   0.02364   0.01681   0.0104  0.0041  0.2500  -10.9032   0.0000   0.2291
  12.500   1.2785   0.02533   0.01872   0.0125  0.0038  0.2500  -11.7156   0.0000   0.2269
  13.000   1.3076   0.02734   0.02100   0.0151  0.0035  0.2500  -12.4782   0.0000   0.2244
  13.500   1.3229   0.02970   0.02361   0.0192  0.0033  0.2500  -13.1106   0.0000   0.2206
  14.000   1.3303   0.03289   0.02706   0.0227  0.0032  0.2500  -13.6548   0.0000   0.2172
  14.500   1.3288   0.03752   0.03198   0.0241  0.0031  0.2500  -14.0771   0.0000   0.2152
  15.000   1.3175   0.04472   0.03949   0.0218  0.0031  0.2500  -14.3317   0.0000   0.2157
  15.500   1.2911   0.05631   0.05142   0.0146  0.0030  0.2500  -14.2965   0.0000   0.2197
  16.000   1.2371   0.07431   0.06977   0.0033  0.0031  0.2500  -13.7395   0.0000   0.2273
  16.500   1.1520   0.09812   0.09390  -0.0096  0.0032  0.2500  -12.5687   0.0000   0.2375
  17.000   1.0638   0.12345   0.11946  -0.0225  0.0033  0.2500  -11.1776   0.0000   0.2499
  17.500   0.9896   0.14844   0.14461  -0.0352  0.0035  0.2500  -9.7856   0.0000   0.2641
  18.000   0.8122   0.21567   0.21194  -0.0645  0.0033  0.2500  -3.8584   0.0000   0.3118
  18.500   0.8193   0.22672   0.22299  -0.0694  0.0031  0.2500  -3.5198   0.0000   0.3168
  19.000   0.8305   0.23594   0.23225  -0.0739  0.0027  0.2500  -3.3638   0.0000   0.3205
  19.500   0.8440   0.24382   0.24014  -0.0782  0.0024  0.2500  -3.3481   0.0000   0.3235
  20.000   0.8583   0.25114   0.24748  -0.0825  0.0022  0.2500  -3.3936   0.0000   0.3261


