xflr5 v6.42

 Calculated polar for: SD8020

 1 1 Reynolds number fixed          Mach number fixed         

 xtrf =   0.250 (top)        0.250 (bottom)
 Mach =   0.000     Re =     0.005 e 6     Ncrit =   5.000

  alpha     CL        CD       CDp       Cm    Top Xtr Bot Xtr   Cpmin    Chinge    XCp    
 ------- -------- --------- --------- -------- ------- ------- -------- --------- ---------
 -10.000  -0.6260   0.12565   0.10052   0.0067  0.2500  0.2500  -2.2456   0.0000   0.2524
  -9.500  -0.6170   0.11646   0.09118   0.0036  0.2500  0.2500  -2.2442   0.0000   0.2478
  -9.000  -0.6066   0.10743   0.08195   0.0006  0.2500  0.2500  -2.2269   0.0000   0.2434
  -8.500  -0.5939   0.09875   0.07298  -0.0021  0.2500  0.2500  -2.1878   0.0000   0.2390
  -8.000  -0.5780   0.09072   0.06453  -0.0045  0.2500  0.2500  -2.1180   0.0000   0.2351
  -7.500  -0.5578   0.08366   0.05661  -0.0062  0.2500  0.2500  -2.0307   0.0000   0.2320
  -7.000  -0.5335   0.07771   0.04998  -0.0073  0.2500  0.2500  -1.9149   0.0000   0.2298
  -6.500  -0.5068   0.07275   0.04427  -0.0077  0.2500  0.2500  -1.7741   0.0000   0.2286
  -6.000  -0.4792   0.06847   0.03924  -0.0078  0.2500  0.2500  -1.6203   0.0000   0.2278
  -5.500  -0.4484   0.06491   0.03484  -0.0077  0.2500  0.2500  -1.4749   0.0000   0.2271
  -5.000  -0.4139   0.06219   0.03116  -0.0073  0.2500  0.2500  -1.3183   0.0000   0.2270
  -4.500  -0.3775   0.05991   0.02772  -0.0067  0.2500  0.2500  -1.1569   0.0000   0.2270
  -4.000  -0.3394   0.05801   0.02495  -0.0061  0.2500  0.2500  -1.0220   0.0000   0.2271
  -3.500  -0.2997   0.05644   0.02258  -0.0055  0.2500  0.2500  -0.9074   0.0000   0.2271
  -3.000  -0.2588   0.05516   0.02042  -0.0047  0.2500  0.2500  -0.8089   0.0000   0.2272
  -2.500  -0.2170   0.05414   0.01876  -0.0040  0.2500  0.2500  -0.7153   0.0000   0.2272
  -2.000  -0.1744   0.05333   0.01744  -0.0032  0.2500  0.2500  -0.6312   0.0000   0.2273
  -1.500  -0.1313   0.05272   0.01644  -0.0024  0.2500  0.2500  -0.5538   0.0000   0.2273
  -1.000  -0.0877   0.05230   0.01563  -0.0016  0.2500  0.2500  -0.4867   0.0000   0.2274
  -0.500  -0.0439   0.05205   0.01520  -0.0008  0.2500  0.2500  -0.4259   0.0000   0.2273
   0.000   0.0000   0.05197   0.01508  -0.0000  0.2500  0.2500  -0.3719   0.0000   0.9602
   0.500   0.0439   0.05205   0.01520   0.0008  0.2500  0.2500  -0.4259   0.0000   0.2277
   1.000   0.0877   0.05230   0.01563   0.0016  0.2500  0.2500  -0.4867   0.0000   0.2276
   1.500   0.1313   0.05272   0.01643   0.0024  0.2500  0.2500  -0.5537   0.0000   0.2274
   2.000   0.1744   0.05333   0.01744   0.0032  0.2500  0.2500  -0.6311   0.0000   0.2274
   2.500   0.2170   0.05413   0.01876   0.0040  0.2500  0.2500  -0.7152   0.0000   0.2273
   3.000   0.2589   0.05516   0.02041   0.0047  0.2500  0.2500  -0.8088   0.0000   0.2273
   3.500   0.2998   0.05644   0.02258   0.0054  0.2500  0.2500  -0.9081   0.0000   0.2272
   4.000   0.3395   0.05800   0.02494   0.0061  0.2500  0.2500  -1.0228   0.0000   0.2271
   4.500   0.3777   0.05990   0.02771   0.0067  0.2500  0.2500  -1.1573   0.0000   0.2271
   5.000   0.4140   0.06218   0.03115   0.0073  0.2500  0.2500  -1.3188   0.0000   0.2271
   5.500   0.4487   0.06490   0.03483   0.0077  0.2500  0.2500  -1.4755   0.0000   0.2272
   6.000   0.4795   0.06845   0.03922   0.0078  0.2500  0.2500  -1.6203   0.0000   0.2278
   6.500   0.5072   0.07274   0.04426   0.0076  0.2500  0.2500  -1.7742   0.0000   0.2287
   7.000   0.5340   0.07770   0.04997   0.0072  0.2500  0.2500  -1.9152   0.0000   0.2299
   7.500   0.5583   0.08365   0.05660   0.0062  0.2500  0.2500  -2.0311   0.0000   0.2321
   8.000   0.5785   0.09071   0.06453   0.0044  0.2500  0.2500  -2.1185   0.0000   0.2352
   8.500   0.5945   0.09875   0.07298   0.0021  0.2500  0.2500  -2.1883   0.0000   0.2391
   9.000   0.6072   0.10745   0.08196  -0.0007  0.2500  0.2500  -2.2274   0.0000   0.2435
   9.500   0.6177   0.11648   0.09121  -0.0037  0.2500  0.2500  -2.2446   0.0000   0.2480
  10.000   0.6268   0.12568   0.10056  -0.0068  0.2500  0.2500  -2.2459   0.0000   0.2525
  10.500   0.6348   0.13491   0.10990  -0.0099  0.2500  0.2500  -2.2353   0.0000   0.2571
  11.000   0.6422   0.14407   0.11914  -0.0132  0.2500  0.2500  -2.2164   0.0000   0.2616
  11.500   0.6496   0.15311   0.12824  -0.0164  0.2500  0.2500  -2.1924   0.0000   0.2659
  12.000   0.6570   0.16201   0.13719  -0.0196  0.2500  0.2500  -2.1647   0.0000   0.2701
  12.500   0.6647   0.17081   0.14602  -0.0228  0.2500  0.2500  -2.1489   0.0000   0.2742
  13.000   0.6729   0.17944   0.15469  -0.0260  0.2500  0.2500  -2.1388   0.0000   0.2782
  13.500   0.6817   0.18791   0.16319  -0.0292  0.2500  0.2500  -2.1276   0.0000   0.2820
  14.000   0.6910   0.19621   0.17151  -0.0324  0.2500  0.2500  -2.1155   0.0000   0.2856
  14.500   0.7007   0.20434   0.17993  -0.0356  0.2500  0.2500  -2.1020   0.0000   0.2890
  15.000   0.7110   0.21228   0.18791  -0.0388  0.2500  0.2500  -2.0886   0.0000   0.2923
  15.500   0.7218   0.22009   0.19574  -0.0420  0.2500  0.2500  -2.0744   0.0000   0.2955
  16.000   0.7333   0.22781   0.20348  -0.0453  0.2500  0.2500  -2.0597   0.0000   0.2985
  16.500   0.7453   0.23547   0.21116  -0.0487  0.2500  0.2500  -2.0443   0.0000   0.3015
  17.000   0.7579   0.24307   0.21879  -0.0521  0.2500  0.2500  -2.0283   0.0000   0.3043
  17.500   0.7709   0.25062   0.22638  -0.0555  0.2500  0.2500  -2.0115   0.0000   0.3071
  18.000   0.7843   0.25813   0.23392  -0.0591  0.2500  0.2500  -1.9939   0.0000   0.3098
  18.500   0.7981   0.26558   0.24142  -0.0627  0.2500  0.2500  -1.9756   0.0000   0.3124
  19.000   0.8121   0.27296   0.24885  -0.0663  0.2500  0.2500  -1.9567   0.0000   0.3149
  19.500   0.8264   0.28031   0.25624  -0.0700  0.2500  0.2500  -1.9374   0.0000   0.3173
  20.000   0.8411   0.28795   0.26393  -0.0739  0.2500  0.2500  -1.9179   0.0000   0.3196


