xflr5 v6.42

 Calculated polar for: SD8020

 1 1 Reynolds number fixed          Mach number fixed         

 xtrf =   0.250 (top)        0.250 (bottom)
 Mach =   0.000     Re =     0.010 e 6     Ncrit =   5.000

  alpha     CL        CD       CDp       Cm    Top Xtr Bot Xtr   Cpmin    Chinge    XCp    
 ------- -------- --------- --------- -------- ------- ------- -------- --------- ---------
 -10.000  -0.6660   0.12006   0.10310   0.0107  0.2500  0.2500  -2.2916   0.0000   0.2582
  -9.500  -0.6704   0.10943   0.09252   0.0062  0.2500  0.2500  -2.3736   0.0000   0.2519
  -9.000  -0.6784   0.09848   0.08160   0.0017  0.2500  0.2500  -2.4683   0.0000   0.2454
  -8.500  -0.6833   0.08712   0.07012  -0.0029  0.2500  0.2500  -2.5550   0.0000   0.2390
  -8.000  -0.6810   0.07608   0.05865  -0.0068  0.2500  0.2500  -2.6078   0.0000   0.2335
  -7.500  -0.6643   0.06630   0.04809  -0.0096  0.2500  0.2500  -2.5811   0.0000   0.2293
  -7.000  -0.6316   0.05882   0.03960  -0.0109  0.2500  0.2500  -2.4420   0.0000   0.2266
  -6.500  -0.5918   0.05383   0.03337  -0.0109  0.2500  0.2500  -2.2169   0.0000   0.2256
  -6.000  -0.5509   0.05044   0.02895  -0.0103  0.2500  0.2500  -2.0001   0.0000   0.2257
  -5.500  -0.5087   0.04792   0.02540  -0.0094  0.2500  0.2500  -1.7692   0.0000   0.2261
  -5.000  -0.4657   0.04597   0.02247  -0.0085  0.2500  0.2500  -1.5427   0.0000   0.2266
  -4.500  -0.4219   0.04437   0.01980  -0.0076  0.2500  0.2500  -1.3461   0.0000   0.2272
  -4.000  -0.3774   0.04306   0.01767  -0.0067  0.2500  0.2500  -1.1513   0.0000   0.2278
  -3.500  -0.3320   0.04198   0.01587  -0.0058  0.2500  0.2500  -0.9981   0.0000   0.2282
  -3.000  -0.2859   0.04109   0.01436  -0.0049  0.2500  0.2500  -0.8725   0.0000   0.2287
  -2.500  -0.2392   0.04038   0.01300  -0.0040  0.2500  0.2500  -0.7677   0.0000   0.2290
  -2.000  -0.1919   0.03982   0.01201  -0.0032  0.2500  0.2500  -0.6656   0.0000   0.2293
  -1.500  -0.1442   0.03941   0.01126  -0.0024  0.2500  0.2500  -0.5804   0.0000   0.2296
  -1.000  -0.0963   0.03912   0.01066  -0.0016  0.2500  0.2500  -0.5024   0.0000   0.2297
  -0.500  -0.0482   0.03894   0.01035  -0.0008  0.2500  0.2500  -0.4342   0.0000   0.2298
   0.000   0.0000   0.03889   0.01025  -0.0000  0.2500  0.2500  -0.3746   0.0000   0.9190
   0.500   0.0482   0.03894   0.01035   0.0008  0.2500  0.2500  -0.4341   0.0000   0.2301
   1.000   0.0963   0.03911   0.01066   0.0016  0.2500  0.2500  -0.5024   0.0000   0.2299
   1.500   0.1443   0.03941   0.01126   0.0024  0.2500  0.2500  -0.5802   0.0000   0.2297
   2.000   0.1919   0.03982   0.01201   0.0032  0.2500  0.2500  -0.6654   0.0000   0.2294
   2.500   0.2392   0.04038   0.01300   0.0040  0.2500  0.2500  -0.7674   0.0000   0.2291
   3.000   0.2860   0.04109   0.01436   0.0049  0.2500  0.2500  -0.8722   0.0000   0.2287
   3.500   0.3321   0.04197   0.01587   0.0057  0.2500  0.2500  -0.9988   0.0000   0.2283
   4.000   0.3774   0.04306   0.01767   0.0066  0.2500  0.2500  -1.1516   0.0000   0.2278
   4.500   0.4220   0.04437   0.01979   0.0075  0.2500  0.2500  -1.3464   0.0000   0.2273
   5.000   0.4658   0.04596   0.02246   0.0085  0.2500  0.2500  -1.5431   0.0000   0.2267
   5.500   0.5088   0.04791   0.02540   0.0094  0.2500  0.2500  -1.7683   0.0000   0.2261
   6.000   0.5511   0.05043   0.02894   0.0102  0.2500  0.2500  -1.9992   0.0000   0.2258
   6.500   0.5919   0.05383   0.03336   0.0109  0.2500  0.2500  -2.2160   0.0000   0.2256
   7.000   0.6318   0.05882   0.03960   0.0109  0.2500  0.2500  -2.4410   0.0000   0.2266
   7.500   0.6645   0.06631   0.04810   0.0095  0.2500  0.2500  -2.5800   0.0000   0.2293
   8.000   0.6813   0.07610   0.05867   0.0068  0.2500  0.2500  -2.6066   0.0000   0.2336
   8.500   0.6837   0.08715   0.07014   0.0029  0.2500  0.2500  -2.5539   0.0000   0.2391
   9.000   0.6789   0.09850   0.08163  -0.0017  0.2500  0.2500  -2.4673   0.0000   0.2455
   9.500   0.6711   0.10947   0.09256  -0.0064  0.2500  0.2500  -2.3730   0.0000   0.2521
  10.000   0.6667   0.12010   0.10315  -0.0108  0.2500  0.2500  -2.2914   0.0000   0.2584
  10.500   0.6649   0.13021   0.11323  -0.0147  0.2500  0.2500  -2.2352   0.0000   0.2640
  11.000   0.6648   0.13992   0.12292  -0.0183  0.2500  0.2500  -2.1890   0.0000   0.2690
  11.500   0.6662   0.14929   0.13227  -0.0217  0.2500  0.2500  -2.1490   0.0000   0.2736
  12.000   0.6691   0.15836   0.14135  -0.0249  0.2500  0.2500  -2.1139   0.0000   0.2779
  12.500   0.6733   0.16718   0.15017  -0.0280  0.2500  0.2500  -2.0825   0.0000   0.2819
  13.000   0.6787   0.17577   0.15877  -0.0311  0.2500  0.2500  -2.0538   0.0000   0.2857
  13.500   0.6852   0.18414   0.16715  -0.0341  0.2500  0.2500  -2.0271   0.0000   0.2892
  14.000   0.6926   0.19233   0.17535  -0.0371  0.2500  0.2500  -2.0017   0.0000   0.2925
  14.500   0.7011   0.20035   0.18337  -0.0402  0.2500  0.2500  -1.9773   0.0000   0.2957
  15.000   0.7105   0.20824   0.19145  -0.0432  0.2500  0.2500  -1.9527   0.0000   0.2988
  15.500   0.7209   0.21607   0.19928  -0.0464  0.2500  0.2500  -1.9288   0.0000   0.3018
  16.000   0.7322   0.22385   0.20707  -0.0496  0.2500  0.2500  -1.9047   0.0000   0.3047
  16.500   0.7442   0.23159   0.21482  -0.0529  0.2500  0.2500  -1.8804   0.0000   0.3074
  17.000   0.7569   0.23930   0.22253  -0.0563  0.2500  0.2500  -1.8558   0.0000   0.3101
  17.500   0.7701   0.24695   0.23019  -0.0597  0.2500  0.2500  -1.8307   0.0000   0.3127
  18.000   0.7837   0.25457   0.23783  -0.0632  0.2500  0.2500  -1.8053   0.0000   0.3153
  18.500   0.7977   0.26218   0.24546  -0.0668  0.2500  0.2500  -1.7799   0.0000   0.3177
  19.000   0.8121   0.26976   0.25307  -0.0705  0.2500  0.2500  -1.7546   0.0000   0.3201
  19.500   0.8267   0.27733   0.26066  -0.0742  0.2500  0.2500  -1.7468   0.0000   0.3224
  20.000   0.8416   0.28488   0.26824  -0.0780  0.2500  0.2500  -1.7519   0.0000   0.3246


