xflr5 v6.42

 Calculated polar for: SD8020

 1 1 Reynolds number fixed          Mach number fixed         

 xtrf =   0.250 (top)        0.250 (bottom)
 Mach =   0.000     Re =     2.000 e 6     Ncrit =   5.000

  alpha     CL        CD       CDp       Cm    Top Xtr Bot Xtr   Cpmin    Chinge    XCp    
 ------- -------- --------- --------- -------- ------- ------- -------- --------- ---------
 -10.000  -1.0977   0.01446   0.00757  -0.0014  0.2500  0.0043  -8.3824   0.0000   0.2389
  -9.500  -1.0474   0.01371   0.00676  -0.0008  0.2500  0.0063  -7.6224   0.0000   0.2401
  -9.000  -0.9960   0.01307   0.00609  -0.0003  0.2500  0.0080  -6.8741   0.0000   0.2411
  -8.500  -0.9434   0.01257   0.00550   0.0000  0.2500  0.0085  -6.1509   0.0000   0.2421
  -8.000  -0.8902   0.01209   0.00496   0.0003  0.2500  0.0088  -5.4589   0.0000   0.2429
  -7.500  -0.8371   0.01156   0.00439   0.0006  0.2500  0.0115  -4.8076   0.0000   0.2438
  -7.000  -0.7834   0.01109   0.00387   0.0009  0.2500  0.0139  -4.1795   0.0000   0.2447
  -6.500  -0.7289   0.01070   0.00344   0.0010  0.2500  0.0169  -3.5826   0.0000   0.2454
  -6.000  -0.6747   0.01024   0.00301   0.0012  0.2500  0.0239  -3.0252   0.0000   0.2462
  -5.500  -0.6202   0.00979   0.00260   0.0013  0.2500  0.0382  -2.5047   0.0000   0.2469
  -5.000  -0.5652   0.00942   0.00227   0.0013  0.2500  0.0535  -2.1393   0.0000   0.2476
  -4.500  -0.5096   0.00911   0.00200   0.0013  0.2500  0.0690  -1.8059   0.0000   0.2481
  -4.000  -0.4541   0.00876   0.00174   0.0013  0.2500  0.0940  -1.4900   0.0000   0.2487
  -3.500  -0.3986   0.00840   0.00150   0.0013  0.2500  0.1307  -1.2219   0.0000   0.2493
  -3.000  -0.3424   0.00816   0.00133   0.0012  0.2500  0.1552  -1.0216   0.0000   0.2497
  -2.500  -0.2860   0.00793   0.00118   0.0010  0.2500  0.1849  -0.8673   0.0000   0.2502
  -2.000  -0.2297   0.00767   0.00105   0.0009  0.2500  0.2267  -0.7435   0.0000   0.2506
  -1.500  -0.1727   0.00753   0.00096   0.0007  0.2500  0.2500  -0.6246   0.0000   0.2510
  -1.000  -0.1152   0.00752   0.00092   0.0005  0.2500  0.2500  -0.5258   0.0000   0.2511
  -0.500  -0.0576   0.00751   0.00089   0.0002  0.2500  0.2500  -0.4432   0.0000   0.2510
   0.000   0.0000   0.00750   0.00089  -0.0000  0.2500  0.2500  -0.3722   0.0000   1.1688
   0.500   0.0576   0.00751   0.00089  -0.0003  0.2500  0.2500  -0.4433   0.0000   0.2513
   1.000   0.1152   0.00752   0.00092  -0.0005  0.2500  0.2500  -0.5259   0.0000   0.2512
   1.500   0.1728   0.00753   0.00096  -0.0007  0.2500  0.2500  -0.6238   0.0000   0.2511
   2.000   0.2297   0.00767   0.00104  -0.0009  0.2273  0.2500  -0.7426   0.0000   0.2507
   2.500   0.2860   0.00793   0.00118  -0.0011  0.1846  0.2500  -0.8676   0.0000   0.2502
   3.000   0.3424   0.00816   0.00133  -0.0012  0.1553  0.2500  -1.0219   0.0000   0.2498
   3.500   0.3986   0.00840   0.00150  -0.0013  0.1307  0.2500  -1.2228   0.0000   0.2494
   4.000   0.4542   0.00876   0.00174  -0.0013  0.0945  0.2500  -1.4885   0.0000   0.2488
   4.500   0.5096   0.00911   0.00200  -0.0013  0.0691  0.2500  -1.8041   0.0000   0.2482
   5.000   0.5652   0.00942   0.00227  -0.0013  0.0535  0.2500  -2.1373   0.0000   0.2476
   5.500   0.6202   0.00979   0.00260  -0.0013  0.0382  0.2500  -2.5036   0.0000   0.2469
   6.000   0.6747   0.01024   0.00301  -0.0012  0.0242  0.2500  -3.0240   0.0000   0.2462
   6.500   0.7289   0.01070   0.00344  -0.0010  0.0172  0.2500  -3.5813   0.0000   0.2454
   7.000   0.7834   0.01108   0.00387  -0.0009  0.0140  0.2500  -4.1777   0.0000   0.2447
   7.500   0.8371   0.01155   0.00438  -0.0006  0.0116  0.2500  -4.8059   0.0000   0.2439
   8.000   0.8903   0.01208   0.00495  -0.0003  0.0089  0.2500  -5.4579   0.0000   0.2429
   8.500   0.9434   0.01256   0.00550  -0.0000  0.0085  0.2500  -6.1485   0.0000   0.2421
   9.000   0.9960   0.01307   0.00608   0.0003  0.0080  0.2500  -6.8713   0.0000   0.2411
   9.500   1.0474   0.01371   0.00676   0.0008  0.0063  0.2500  -7.6189   0.0000   0.2401
  10.000   1.0976   0.01446   0.00757   0.0014  0.0043  0.2500  -8.3787   0.0000   0.2389
  10.500   1.1473   0.01522   0.00840   0.0020  0.0037  0.2500  -9.1701   0.0000   0.2377
  11.000   1.1954   0.01611   0.00937   0.0029  0.0030  0.2500  -9.9711   0.0000   0.2364
  11.500   1.2420   0.01713   0.01048   0.0039  0.0023  0.2500  -10.7457   0.0000   0.2349
  12.000   1.2861   0.01837   0.01189   0.0053  0.0020  0.2500  -11.5965   0.0000   0.2333
  12.500   1.3269   0.01986   0.01360   0.0070  0.0018  0.2500  -12.4652   0.0000   0.2313
  13.000   1.3672   0.02120   0.01511   0.0086  0.0018  0.2500  -13.3997   0.0000   0.2295
  13.500   1.4042   0.02269   0.01677   0.0106  0.0018  0.2500  -14.3283   0.0000   0.2274
  14.000   1.4367   0.02436   0.01861   0.0130  0.0018  0.2500  -15.2338   0.0000   0.2251
  14.500   1.4618   0.02623   0.02066   0.0162  0.0018  0.2500  -16.0774   0.0000   0.2222
  15.000   1.4733   0.02846   0.02308   0.0208  0.0018  0.2500  -16.7764   0.0000   0.2182
  15.500   1.4800   0.03158   0.02640   0.0239  0.0018  0.2500  -17.4091   0.0000   0.2152
  16.000   1.4792   0.03615   0.03118   0.0250  0.0018  0.2500  -17.9236   0.0000   0.2135
  16.500   1.4688   0.04312   0.03840   0.0229  0.0018  0.2500  -18.2600   0.0000   0.2136
  17.500   1.3713   0.07430   0.07021   0.0043  0.0018  0.2500  -17.4395   0.0000   0.2236
  18.000   1.2158   0.11012   0.10643  -0.0149  0.0018  0.2500  -14.8789   0.0000   0.2382
  18.500   1.0670   0.14862   0.14523  -0.0352  0.0018  0.2500  -11.9933   0.0000   0.2590
  19.000   1.0056   0.17221   0.16898  -0.0478  0.0018  0.2500  -10.5979   0.0000   0.2734
  19.500   0.9334   0.20297   0.19992  -0.0637  0.0018  0.2500  -8.3461   0.0000   0.2949
  20.000   0.8692   0.24414   0.24114  -0.0812  0.0017  0.2500  -4.6044   0.0000   0.3227


