xflr5 v6.42

 Calculated polar for: SD8020

 1 1 Reynolds number fixed          Mach number fixed         

 xtrf =   0.250 (top)        0.250 (bottom)
 Mach =   0.000     Re =     0.300 e 6     Ncrit =   5.000

  alpha     CL        CD       CDp       Cm    Top Xtr Bot Xtr   Cpmin    Chinge    XCp    
 ------- -------- --------- --------- -------- ------- ------- -------- --------- ---------
 -10.000  -1.0290   0.02536   0.01717  -0.0107  0.2500  0.0123  -7.3051   0.0000   0.2299
  -9.500  -0.9871   0.02383   0.01535  -0.0093  0.2500  0.0143  -6.7036   0.0000   0.2315
  -9.000  -0.9474   0.02179   0.01303  -0.0075  0.2500  0.0170  -6.1638   0.0000   0.2336
  -8.500  -0.9035   0.02021   0.01126  -0.0062  0.2500  0.0199  -5.5965   0.0000   0.2352
  -8.000  -0.8561   0.01905   0.00988  -0.0052  0.2500  0.0235  -5.0109   0.0000   0.2366
  -7.500  -0.8094   0.01763   0.00823  -0.0039  0.2500  0.0298  -4.4734   0.0000   0.2382
  -7.000  -0.7597   0.01667   0.00713  -0.0031  0.2500  0.0390  -3.9213   0.0000   0.2394
  -6.500  -0.7093   0.01577   0.00617  -0.0025  0.2500  0.0564  -3.3848   0.0000   0.2405
  -6.000  -0.6582   0.01495   0.00537  -0.0019  0.2500  0.0808  -2.8683   0.0000   0.2415
  -5.500  -0.6063   0.01425   0.00463  -0.0015  0.2500  0.1065  -2.4028   0.0000   0.2424
  -5.000  -0.5543   0.01353   0.00403  -0.0011  0.2500  0.1485  -2.0664   0.0000   0.2432
  -4.500  -0.5013   0.01296   0.00350  -0.0007  0.2500  0.1875  -1.7495   0.0000   0.2440
  -4.000  -0.4484   0.01237   0.00305  -0.0004  0.2500  0.2409  -1.4473   0.0000   0.2449
  -3.500  -0.3930   0.01216   0.00266  -0.0003  0.2500  0.2500  -1.2032   0.0000   0.2454
  -3.000  -0.3371   0.01203   0.00236  -0.0002  0.2500  0.2500  -1.0056   0.0000   0.2458
  -2.500  -0.2811   0.01192   0.00210  -0.0001  0.2500  0.2500  -0.8583   0.0000   0.2461
  -2.000  -0.2249   0.01184   0.00191  -0.0001  0.2500  0.2500  -0.7371   0.0000   0.2463
  -1.500  -0.1688   0.01178   0.00177  -0.0000  0.2500  0.2500  -0.6196   0.0000   0.2465
  -1.000  -0.1125   0.01174   0.00166  -0.0000  0.2500  0.2500  -0.5240   0.0000   0.2466
  -0.500  -0.0563   0.01172   0.00160  -0.0000  0.2500  0.2500  -0.4434   0.0000   0.2466
   0.000   0.0000   0.01171   0.00159  -0.0000  0.2500  0.2500  -0.3740   0.0000   0.9036
   0.500   0.0563   0.01172   0.00160  -0.0000  0.2500  0.2500  -0.4436   0.0000   0.2470
   1.000   0.1126   0.01174   0.00166   0.0000  0.2500  0.2500  -0.5241   0.0000   0.2468
   1.500   0.1688   0.01178   0.00177   0.0000  0.2500  0.2500  -0.6197   0.0000   0.2466
   2.000   0.2250   0.01184   0.00191   0.0000  0.2500  0.2500  -0.7363   0.0000   0.2464
   2.500   0.2811   0.01192   0.00210   0.0001  0.2500  0.2500  -0.8576   0.0000   0.2461
   3.000   0.3371   0.01203   0.00236   0.0001  0.2500  0.2500  -1.0060   0.0000   0.2458
   3.500   0.3930   0.01215   0.00265   0.0002  0.2500  0.2500  -1.2039   0.0000   0.2454
   4.000   0.4484   0.01237   0.00305   0.0004  0.2408  0.2500  -1.4459   0.0000   0.2449
   4.500   0.5013   0.01297   0.00350   0.0007  0.1874  0.2500  -1.7478   0.0000   0.2441
   5.000   0.5543   0.01353   0.00403   0.0010  0.1488  0.2500  -2.0646   0.0000   0.2433
   5.500   0.6063   0.01425   0.00463   0.0014  0.1065  0.2500  -2.4006   0.0000   0.2424
   6.000   0.6582   0.01495   0.00537   0.0019  0.0809  0.2500  -2.8671   0.0000   0.2415
   6.500   0.7093   0.01577   0.00617   0.0025  0.0565  0.2500  -3.3833   0.0000   0.2405
   7.000   0.7597   0.01666   0.00712   0.0031  0.0393  0.2500  -3.9199   0.0000   0.2394
   7.500   0.8094   0.01763   0.00823   0.0039  0.0301  0.2500  -4.4721   0.0000   0.2382
   8.000   0.8560   0.01906   0.00989   0.0052  0.0236  0.2500  -5.0087   0.0000   0.2366
   8.500   0.9034   0.02020   0.01126   0.0061  0.0200  0.2500  -5.5949   0.0000   0.2352
   9.000   0.9475   0.02175   0.01300   0.0075  0.0171  0.2500  -6.1649   0.0000   0.2336
   9.500   0.9872   0.02380   0.01532   0.0093  0.0144  0.2500  -6.7044   0.0000   0.2315
  10.000   1.0292   0.02533   0.01714   0.0107  0.0124  0.2500  -7.3062   0.0000   0.2299
  10.500   1.0663   0.02728   0.01942   0.0125  0.0108  0.2500  -7.8684   0.0000   0.2279
  11.000   1.0962   0.02977   0.02218   0.0148  0.0095  0.2500  -8.3851   0.0000   0.2255
  11.500   1.1076   0.03390   0.02673   0.0186  0.0086  0.2500  -8.6667   0.0000   0.2215
  12.000   1.1142   0.03736   0.03060   0.0226  0.0082  0.2500  -8.9761   0.0000   0.2173
  12.500   1.1099   0.04253   0.03619   0.0244  0.0078  0.2500  -9.2030   0.0000   0.2148
  13.000   1.0939   0.05035   0.04445   0.0221  0.0076  0.2500  -9.2874   0.0000   0.2157
  13.500   1.0666   0.06220   0.05673   0.0145  0.0075  0.2500  -9.1673   0.0000   0.2213
  14.000   1.0257   0.07868   0.07358   0.0032  0.0076  0.2500  -8.7802   0.0000   0.2308
  14.500   0.9692   0.09913   0.09430  -0.0090  0.0078  0.2500  -8.0808   0.0000   0.2427
  15.000   0.8895   0.12608   0.12143  -0.0232  0.0083  0.2500  -6.8202   0.0000   0.2594
  15.500   0.7766   0.16802   0.16329  -0.0413  0.0084  0.2500  -4.1483   0.0000   0.2880
  16.000   0.7653   0.18385   0.17907  -0.0474  0.0081  0.2500  -3.4942   0.0000   0.2968
  16.500   0.7676   0.19530   0.19050  -0.0522  0.0080  0.2500  -3.1969   0.0000   0.3025
  17.000   0.7747   0.20520   0.20040  -0.0565  0.0081  0.2500  -3.0243   0.0000   0.3070
  17.500   0.7843   0.21438   0.20958  -0.0607  0.0082  0.2500  -2.9092   0.0000   0.3109
  18.000   0.7952   0.22409   0.21930  -0.0653  0.0076  0.2500  -2.7359   0.0000   0.3153
  18.500   0.8074   0.23326   0.22847  -0.0699  0.0067  0.2500  -2.6020   0.0000   0.3192
  19.000   0.8207   0.24170   0.23693  -0.0742  0.0064  0.2500  -2.5004   0.0000   0.3224
  19.500   0.8348   0.24997   0.24522  -0.0785  0.0061  0.2500  -2.3939   0.0000   0.3254
  20.000   0.8492   0.25821   0.25351  -0.0829  0.0061  0.2500  -2.2750   0.0000   0.3283


