xflr5 v6.42

 Calculated polar for: SD8020

 1 1 Reynolds number fixed          Mach number fixed         

 xtrf =   0.250 (top)        0.250 (bottom)
 Mach =   0.000     Re =     0.400 e 6     Ncrit =   5.000

  alpha     CL        CD       CDp       Cm    Top Xtr Bot Xtr   Cpmin    Chinge    XCp    
 ------- -------- --------- --------- -------- ------- ------- -------- --------- ---------
 -10.000  -1.0468   0.02251   0.01446  -0.0084  0.2500  0.0106  -7.6015   0.0000   0.2322
  -9.500  -1.0032   0.02112   0.01287  -0.0071  0.2500  0.0123  -6.9619   0.0000   0.2338
  -9.000  -0.9569   0.01999   0.01153  -0.0061  0.2500  0.0142  -6.3154   0.0000   0.2351
  -8.500  -0.9113   0.01863   0.00995  -0.0049  0.2500  0.0167  -5.7170   0.0000   0.2367
  -8.000  -0.8641   0.01738   0.00856  -0.0039  0.2500  0.0204  -5.1293   0.0000   0.2381
  -7.500  -0.8143   0.01650   0.00746  -0.0031  0.2500  0.0241  -4.5312   0.0000   0.2392
  -7.000  -0.7647   0.01545   0.00635  -0.0023  0.2500  0.0342  -3.9791   0.0000   0.2406
  -6.500  -0.7135   0.01466   0.00552  -0.0017  0.2500  0.0496  -3.4302   0.0000   0.2416
  -6.000  -0.6614   0.01398   0.00481  -0.0013  0.2500  0.0682  -2.9029   0.0000   0.2425
  -5.500  -0.6089   0.01335   0.00416  -0.0009  0.2500  0.0928  -2.4219   0.0000   0.2433
  -5.000  -0.5560   0.01275   0.00362  -0.0006  0.2500  0.1237  -2.0809   0.0000   0.2441
  -4.500  -0.5029   0.01217   0.00314  -0.0003  0.2500  0.1660  -1.7616   0.0000   0.2449
  -4.000  -0.4490   0.01168   0.00274  -0.0001  0.2500  0.2074  -1.4554   0.0000   0.2456
  -3.500  -0.3948   0.01125   0.00237   0.0001  0.2500  0.2500  -1.2092   0.0000   0.2463
  -3.000  -0.3386   0.01114   0.00211   0.0001  0.2500  0.2500  -1.0097   0.0000   0.2467
  -2.500  -0.2823   0.01105   0.00188   0.0001  0.2500  0.2500  -0.8604   0.0000   0.2470
  -2.000  -0.2260   0.01099   0.00172   0.0001  0.2500  0.2500  -0.7386   0.0000   0.2472
  -1.500  -0.1695   0.01093   0.00160   0.0001  0.2500  0.2500  -0.6205   0.0000   0.2474
  -1.000  -0.1130   0.01090   0.00150   0.0001  0.2500  0.2500  -0.5244   0.0000   0.2475
  -0.500  -0.0565   0.01088   0.00145   0.0000  0.2500  0.2500  -0.4434   0.0000   0.2475
   0.000   0.0000   0.01087   0.00143  -0.0000  0.2500  0.2500  -0.3737   0.0000   0.9263
   0.500   0.0565   0.01088   0.00145  -0.0001  0.2500  0.2500  -0.4435   0.0000   0.2478
   1.000   0.1131   0.01090   0.00150  -0.0001  0.2500  0.2500  -0.5245   0.0000   0.2476
   1.500   0.1695   0.01093   0.00160  -0.0001  0.2500  0.2500  -0.6203   0.0000   0.2475
   2.000   0.2260   0.01099   0.00172  -0.0001  0.2500  0.2500  -0.7378   0.0000   0.2473
   2.500   0.2824   0.01105   0.00188  -0.0002  0.2500  0.2500  -0.8595   0.0000   0.2470
   3.000   0.3387   0.01114   0.00211  -0.0001  0.2500  0.2500  -1.0101   0.0000   0.2467
   3.500   0.3948   0.01125   0.00237  -0.0001  0.2500  0.2500  -1.2100   0.0000   0.2463
   4.000   0.4490   0.01169   0.00274   0.0001  0.2071  0.2500  -1.4539   0.0000   0.2456
   4.500   0.5029   0.01216   0.00314   0.0003  0.1661  0.2500  -1.7599   0.0000   0.2449
   5.000   0.5560   0.01275   0.00362   0.0006  0.1240  0.2500  -2.0791   0.0000   0.2441
   5.500   0.6089   0.01334   0.00416   0.0009  0.0929  0.2500  -2.4196   0.0000   0.2433
   6.000   0.6614   0.01397   0.00481   0.0013  0.0684  0.2500  -2.9017   0.0000   0.2425
   6.500   0.7135   0.01466   0.00552   0.0017  0.0496  0.2500  -3.4287   0.0000   0.2416
   7.000   0.7647   0.01545   0.00635   0.0023  0.0345  0.2500  -3.9776   0.0000   0.2406
   7.500   0.8142   0.01650   0.00746   0.0031  0.0242  0.2500  -4.5291   0.0000   0.2392
   8.000   0.8641   0.01737   0.00856   0.0039  0.0205  0.2500  -5.1277   0.0000   0.2381
   8.500   0.9114   0.01860   0.00991   0.0049  0.0168  0.2500  -5.7185   0.0000   0.2367
   9.000   0.9570   0.01997   0.01151   0.0061  0.0143  0.2500  -6.3150   0.0000   0.2351
   9.500   1.0033   0.02110   0.01285   0.0071  0.0123  0.2500  -6.9615   0.0000   0.2338
  10.000   1.0469   0.02248   0.01443   0.0084  0.0106  0.2500  -7.6014   0.0000   0.2323
  10.500   1.0804   0.02502   0.01730   0.0107  0.0087  0.2500  -8.1087   0.0000   0.2297
  11.000   1.1176   0.02681   0.01938   0.0126  0.0082  0.2500  -8.7105   0.0000   0.2277
  11.500   1.1477   0.02914   0.02204   0.0150  0.0074  0.2500  -9.2380   0.0000   0.2252
  12.000   1.1685   0.03196   0.02520   0.0182  0.0067  0.2500  -9.7078   0.0000   0.2220
  12.500   1.1745   0.03524   0.02881   0.0223  0.0062  0.2500  -10.1335   0.0000   0.2178
  13.000   1.1733   0.03989   0.03380   0.0241  0.0059  0.2500  -10.4720   0.0000   0.2154
  13.500   1.1626   0.04688   0.04114   0.0222  0.0057  0.2500  -10.6681   0.0000   0.2159
  14.000   1.1403   0.05766   0.05231   0.0156  0.0056  0.2500  -10.6495   0.0000   0.2202
  14.500   1.1008   0.07330   0.06832   0.0053  0.0057  0.2500  -10.3087   0.0000   0.2282
  15.000   1.0401   0.09367   0.08902  -0.0067  0.0058  0.2500  -9.5597   0.0000   0.2387
  15.500   0.9500   0.12142   0.11706  -0.0213  0.0062  0.2500  -8.1517   0.0000   0.2545
  16.000   0.7684   0.18369   0.17925  -0.0478  0.0065  0.2500  -3.5481   0.0000   0.2970
  16.500   0.7689   0.19590   0.19144  -0.0528  0.0066  0.2500  -3.1758   0.0000   0.3033
  17.000   0.7756   0.20606   0.20161  -0.0572  0.0065  0.2500  -2.9802   0.0000   0.3080
  17.500   0.7864   0.21467   0.21023  -0.0614  0.0059  0.2500  -2.9381   0.0000   0.3118
  18.000   0.8000   0.22171   0.21728  -0.0653  0.0053  0.2500  -3.0469   0.0000   0.3145
  18.500   0.8134   0.22917   0.22477  -0.0693  0.0050  0.2500  -3.0918   0.0000   0.3174
  19.000   0.8270   0.23647   0.23212  -0.0733  0.0048  0.2500  -3.1462   0.0000   0.3202
  19.500   0.8391   0.24450   0.24016  -0.0776  0.0044  0.2500  -3.0992   0.0000   0.3233
  20.000   0.8524   0.25389   0.24955  -0.0823  0.0042  0.2500  -2.8516   0.0000   0.3268


