xflr5 v6.42

 Calculated polar for: SD8020

 1 1 Reynolds number fixed          Mach number fixed         

 xtrf =   0.250 (top)        0.250 (bottom)
 Mach =   0.000     Re =     0.200 e 6     Ncrit =   5.000

  alpha     CL        CD       CDp       Cm    Top Xtr Bot Xtr   Cpmin    Chinge    XCp    
 ------- -------- --------- --------- -------- ------- ------- -------- --------- ---------
 -10.000  -1.0019   0.03013   0.02163  -0.0141  0.2500  0.0163  -6.8443   0.0000   0.2263
  -9.500  -0.9677   0.02768   0.01892  -0.0121  0.2500  0.0189  -6.3479   0.0000   0.2284
  -9.000  -0.9291   0.02539   0.01628  -0.0102  0.2500  0.0214  -5.8648   0.0000   0.2305
  -8.500  -0.8852   0.02379   0.01434  -0.0088  0.2500  0.0244  -5.3245   0.0000   0.2321
  -8.000  -0.8460   0.02132   0.01167  -0.0069  0.2500  0.0306  -4.8677   0.0000   0.2345
  -7.500  -0.7996   0.01991   0.00992  -0.0056  0.2500  0.0374  -4.3440   0.0000   0.2361
  -7.000  -0.7526   0.01853   0.00844  -0.0045  0.2500  0.0524  -3.8303   0.0000   0.2376
  -6.500  -0.7032   0.01750   0.00733  -0.0037  0.2500  0.0746  -3.3101   0.0000   0.2387
  -6.000  -0.6529   0.01659   0.00635  -0.0030  0.2500  0.0985  -2.8098   0.0000   0.2398
  -5.500  -0.6024   0.01570   0.00550  -0.0024  0.2500  0.1393  -2.3701   0.0000   0.2407
  -5.000  -0.5511   0.01492   0.00477  -0.0019  0.2500  0.1790  -2.0412   0.0000   0.2417
  -4.000  -0.4453   0.01383   0.00358  -0.0011  0.2500  0.2500  -1.4339   0.0000   0.2434
  -3.500  -0.3900   0.01363   0.00315  -0.0008  0.2500  0.2500  -1.1932   0.0000   0.2439
  -3.000  -0.3346   0.01347   0.00280  -0.0007  0.2500  0.2500  -0.9991   0.0000   0.2443
  -2.500  -0.2790   0.01335   0.00248  -0.0005  0.2500  0.2500  -0.8549   0.0000   0.2446
  -2.000  -0.2233   0.01325   0.00226  -0.0004  0.2500  0.2500  -0.7344   0.0000   0.2449
  -1.500  -0.1676   0.01318   0.00209  -0.0003  0.2500  0.2500  -0.6186   0.0000   0.2451
  -1.000  -0.1117   0.01313   0.00195  -0.0002  0.2500  0.2500  -0.5234   0.0000   0.2452
  -0.500  -0.0559   0.01310   0.00188  -0.0001  0.2500  0.2500  -0.4434   0.0000   0.2452
   0.000   0.0000   0.01309   0.00186  -0.0000  0.2500  0.2500  -0.3745   0.0000   0.8885
   0.500   0.0559   0.01310   0.00188   0.0001  0.2500  0.2500  -0.4435   0.0000   0.2455
   1.000   0.1118   0.01313   0.00195   0.0002  0.2500  0.2500  -0.5234   0.0000   0.2454
   1.500   0.1676   0.01318   0.00209   0.0003  0.2500  0.2500  -0.6186   0.0000   0.2452
   2.000   0.2234   0.01325   0.00226   0.0004  0.2500  0.2500  -0.7337   0.0000   0.2450
   2.500   0.2790   0.01335   0.00248   0.0005  0.2500  0.2500  -0.8542   0.0000   0.2447
   3.000   0.3346   0.01347   0.00280   0.0006  0.2500  0.2500  -0.9995   0.0000   0.2443
   3.500   0.3901   0.01363   0.00315   0.0008  0.2500  0.2500  -1.1939   0.0000   0.2439
   4.000   0.4453   0.01383   0.00358   0.0010  0.2500  0.2500  -1.4346   0.0000   0.2434
   5.000   0.5511   0.01492   0.00477   0.0019  0.1790  0.2500  -2.0395   0.0000   0.2417
   5.500   0.6024   0.01570   0.00549   0.0024  0.1393  0.2500  -2.3680   0.0000   0.2408
   6.000   0.6529   0.01659   0.00635   0.0030  0.0985  0.2500  -2.8086   0.0000   0.2398
   6.500   0.7032   0.01750   0.00733   0.0037  0.0746  0.2500  -3.3086   0.0000   0.2387
   7.000   0.7525   0.01853   0.00844   0.0045  0.0525  0.2500  -3.8282   0.0000   0.2376
   7.500   0.7995   0.01992   0.00992   0.0056  0.0375  0.2500  -4.3419   0.0000   0.2361
   8.000   0.8459   0.02132   0.01167   0.0069  0.0307  0.2500  -4.8659   0.0000   0.2345
   8.500   0.8855   0.02374   0.01430   0.0088  0.0245  0.2500  -5.3275   0.0000   0.2321
   9.000   0.9290   0.02539   0.01627   0.0102  0.0215  0.2500  -5.8641   0.0000   0.2305
   9.500   0.9677   0.02768   0.01891   0.0121  0.0190  0.2500  -6.3469   0.0000   0.2284
  10.000   1.0022   0.03007   0.02157   0.0140  0.0163  0.2500  -6.8476   0.0000   0.2264
  10.500   1.0286   0.03342   0.02540   0.0166  0.0141  0.2500  -7.2576   0.0000   0.2237
  11.000   1.0494   0.03692   0.02941   0.0194  0.0126  0.2500  -7.6079   0.0000   0.2206
  11.500   1.0529   0.04109   0.03405   0.0234  0.0117  0.2500  -7.8275   0.0000   0.2163
  12.000   1.0453   0.04657   0.03997   0.0252  0.0111  0.2500  -7.9592   0.0000   0.2135
  12.500   1.0268   0.05460   0.04843   0.0227  0.0107  0.2500  -7.9644   0.0000   0.2147
  13.000   0.9940   0.06748   0.06175   0.0139  0.0106  0.2500  -7.7441   0.0000   0.2218
  13.500   0.9288   0.09016   0.08488  -0.0020  0.0112  0.2500  -6.9869   0.0000   0.2373
  14.000   0.7840   0.13567   0.13042  -0.0255  0.0131  0.2500  -4.5970   0.0000   0.2687
  14.500   0.7493   0.15623   0.15088  -0.0338  0.0125  0.2500  -3.6398   0.0000   0.2815
  15.000   0.7422   0.16973   0.16433  -0.0393  0.0119  0.2500  -3.1816   0.0000   0.2891
  15.500   0.7434   0.18103   0.17562  -0.0440  0.0115  0.2500  -2.9365   0.0000   0.2951
  16.000   0.7485   0.19130   0.18587  -0.0484  0.0114  0.2500  -2.7643   0.0000   0.3001
  16.500   0.7558   0.20105   0.19562  -0.0527  0.0115  0.2500  -2.6150   0.0000   0.3048
  17.000   0.7654   0.21030   0.20487  -0.0569  0.0119  0.2500  -2.4984   0.0000   0.3089
  17.500   0.7767   0.21905   0.21363  -0.0610  0.0125  0.2500  -2.4142   0.0000   0.3125
  18.000   0.7893   0.22727   0.22186  -0.0648  0.0133  0.2500  -2.3693   0.0000   0.3155
  18.500   0.8026   0.23542   0.23003  -0.0688  0.0136  0.2500  -2.3198   0.0000   0.3185
  19.000   0.8167   0.24361   0.23823  -0.0736  0.0114  0.2500  -2.2476   0.0000   0.3223
  19.500   0.8314   0.25132   0.24596  -0.0777  0.0109  0.2500  -2.2050   0.0000   0.3250
  20.000   0.8458   0.25984   0.25449  -0.0821  0.0124  0.2500  -2.0630   0.0000   0.3279


