xflr5 v6.42

 Calculated polar for: SD8020

 1 1 Reynolds number fixed          Mach number fixed         

 xtrf =   0.250 (top)        0.250 (bottom)
 Mach =   0.000     Re =     0.007 e 6     Ncrit =   5.000

  alpha     CL        CD       CDp       Cm    Top Xtr Bot Xtr   Cpmin    Chinge    XCp    
 ------- -------- --------- --------- -------- ------- ------- -------- --------- ---------
 -10.000  -0.6549   0.12183   0.10209   0.0090  0.2500  0.2500  -2.3050   0.0000   0.2558
  -9.500  -0.6537   0.11159   0.09186   0.0051  0.2500  0.2500  -2.3567   0.0000   0.2501
  -9.000  -0.6535   0.10118   0.08142   0.0010  0.2500  0.2500  -2.4083   0.0000   0.2442
  -8.500  -0.6524   0.09090   0.07102  -0.0028  0.2500  0.2500  -2.4490   0.0000   0.2388
  -8.000  -0.6440   0.08104   0.06080  -0.0061  0.2500  0.2500  -2.4485   0.0000   0.2338
  -7.500  -0.6258   0.07246   0.05157  -0.0085  0.2500  0.2500  -2.3816   0.0000   0.2299
  -7.000  -0.5977   0.06579   0.04378  -0.0096  0.2500  0.2500  -2.2342   0.0000   0.2277
  -6.500  -0.5636   0.06089   0.03791  -0.0098  0.2500  0.2500  -2.0584   0.0000   0.2267
  -6.000  -0.5266   0.05718   0.03317  -0.0095  0.2500  0.2500  -1.8628   0.0000   0.2262
  -5.500  -0.4872   0.05430   0.02925  -0.0090  0.2500  0.2500  -1.6505   0.0000   0.2261
  -5.000  -0.4469   0.05203   0.02596  -0.0083  0.2500  0.2500  -1.4594   0.0000   0.2262
  -4.500  -0.4057   0.05016   0.02295  -0.0075  0.2500  0.2500  -1.2756   0.0000   0.2265
  -4.000  -0.3635   0.04861   0.02055  -0.0067  0.2500  0.2500  -1.0986   0.0000   0.2269
  -3.500  -0.3203   0.04734   0.01851  -0.0059  0.2500  0.2500  -0.9650   0.0000   0.2272
  -3.000  -0.2761   0.04630   0.01680  -0.0050  0.2500  0.2500  -0.8493   0.0000   0.2275
  -2.500  -0.2311   0.04546   0.01525  -0.0042  0.2500  0.2500  -0.7487   0.0000   0.2278
  -2.000  -0.1855   0.04481   0.01412  -0.0033  0.2500  0.2500  -0.6533   0.0000   0.2281
  -1.500  -0.1395   0.04432   0.01327  -0.0025  0.2500  0.2500  -0.5709   0.0000   0.2282
  -1.000  -0.0932   0.04397   0.01259  -0.0017  0.2500  0.2500  -0.4969   0.0000   0.2283
  -0.500  -0.0466   0.04377   0.01223  -0.0008  0.2500  0.2500  -0.4314   0.0000   0.2284
   0.000   0.0000   0.04371   0.01212  -0.0000  0.2500  0.2500  -0.3739   0.0000   1.0281
   0.500   0.0467   0.04377   0.01223   0.0008  0.2500  0.2500  -0.4314   0.0000   0.2287
   1.000   0.0932   0.04397   0.01259   0.0016  0.2500  0.2500  -0.4969   0.0000   0.2285
   1.500   0.1396   0.04431   0.01327   0.0025  0.2500  0.2500  -0.5708   0.0000   0.2283
   2.000   0.1856   0.04481   0.01412   0.0033  0.2500  0.2500  -0.6531   0.0000   0.2281
   2.500   0.2311   0.04546   0.01525   0.0041  0.2500  0.2500  -0.7484   0.0000   0.2279
   3.000   0.2761   0.04629   0.01680   0.0050  0.2500  0.2500  -0.8491   0.0000   0.2276
   3.500   0.3204   0.04733   0.01850   0.0058  0.2500  0.2500  -0.9656   0.0000   0.2273
   4.000   0.3636   0.04861   0.02054   0.0067  0.2500  0.2500  -1.0998   0.0000   0.2269
   4.500   0.4058   0.05016   0.02294   0.0075  0.2500  0.2500  -1.2759   0.0000   0.2266
   5.000   0.4470   0.05202   0.02595   0.0083  0.2500  0.2500  -1.4597   0.0000   0.2263
   5.500   0.4874   0.05429   0.02924   0.0090  0.2500  0.2500  -1.6498   0.0000   0.2261
   6.000   0.5268   0.05717   0.03316   0.0095  0.2500  0.2500  -1.8622   0.0000   0.2263
   6.500   0.5638   0.06088   0.03790   0.0097  0.2500  0.2500  -2.0579   0.0000   0.2267
   7.000   0.5980   0.06578   0.04377   0.0095  0.2500  0.2500  -2.2337   0.0000   0.2278
   7.500   0.6262   0.07245   0.05157   0.0084  0.2500  0.2500  -2.3812   0.0000   0.2300
   8.000   0.6445   0.08104   0.06081   0.0061  0.2500  0.2500  -2.4481   0.0000   0.2339
   8.500   0.6530   0.09091   0.07104   0.0027  0.2500  0.2500  -2.4486   0.0000   0.2389
   9.000   0.6541   0.10120   0.08144  -0.0011  0.2500  0.2500  -2.4080   0.0000   0.2444
   9.500   0.6544   0.11162   0.09189  -0.0052  0.2500  0.2500  -2.3565   0.0000   0.2503
  10.000   0.6556   0.12186   0.10213  -0.0091  0.2500  0.2500  -2.3049   0.0000   0.2559
  10.500   0.6573   0.13180   0.11205  -0.0128  0.2500  0.2500  -2.2537   0.0000   0.2612
  11.000   0.6597   0.14143   0.12166  -0.0163  0.2500  0.2500  -2.2056   0.0000   0.2660
  11.500   0.6631   0.15079   0.13101  -0.0197  0.2500  0.2500  -2.1765   0.0000   0.2706
  12.000   0.6673   0.15989   0.14009  -0.0229  0.2500  0.2500  -2.1495   0.0000   0.2749
  12.500   0.6726   0.16875   0.14895  -0.0261  0.2500  0.2500  -2.1243   0.0000   0.2790
  13.000   0.6787   0.17740   0.15759  -0.0292  0.2500  0.2500  -2.1007   0.0000   0.2828
  13.500   0.6858   0.18583   0.16603  -0.0324  0.2500  0.2500  -2.0784   0.0000   0.2865
  14.000   0.6937   0.19408   0.17427  -0.0354  0.2500  0.2500  -2.0567   0.0000   0.2899
  14.500   0.7024   0.20215   0.18234  -0.0385  0.2500  0.2500  -2.0357   0.0000   0.2932
  15.000   0.7120   0.21007   0.19049  -0.0417  0.2500  0.2500  -2.0144   0.0000   0.2964
  15.500   0.7224   0.21789   0.19832  -0.0448  0.2500  0.2500  -1.9939   0.0000   0.2994
  16.000   0.7336   0.22566   0.20610  -0.0481  0.2500  0.2500  -1.9731   0.0000   0.3024
  16.500   0.7455   0.23339   0.21384  -0.0514  0.2500  0.2500  -1.9520   0.0000   0.3052
  17.000   0.7581   0.24108   0.22155  -0.0548  0.2500  0.2500  -1.9304   0.0000   0.3080
  17.500   0.7712   0.24873   0.22922  -0.0582  0.2500  0.2500  -1.9084   0.0000   0.3107
  18.000   0.7847   0.25634   0.23686  -0.0617  0.2500  0.2500  -1.8860   0.0000   0.3132
  18.500   0.7986   0.26393   0.24447  -0.0653  0.2500  0.2500  -1.8632   0.0000   0.3157
  19.000   0.8128   0.27149   0.25206  -0.0690  0.2500  0.2500  -1.8401   0.0000   0.3181
  19.500   0.8272   0.27903   0.25963  -0.0727  0.2500  0.2500  -1.8171   0.0000   0.3205
  20.000   0.8419   0.28656   0.26719  -0.0765  0.2500  0.2500  -1.8004   0.0000   0.3228


