xflr5 v6.42

 Calculated polar for: SD8020

 1 1 Reynolds number fixed          Mach number fixed         

 xtrf =   0.250 (top)        0.250 (bottom)
 Mach =   0.000     Re =     0.040 e 6     Ncrit =   5.000

  alpha     CL        CD       CDp       Cm    Top Xtr Bot Xtr   Cpmin    Chinge    XCp    
 ------- -------- --------- --------- -------- ------- ------- -------- --------- ---------
 -10.000  -0.8228   0.07019   0.06061  -0.0202  0.2500  0.0651  -4.1821   0.0000   0.2167
  -9.500  -0.8474   0.06127   0.05113  -0.0200  0.2500  0.0685  -4.2928   0.0000   0.2182
  -9.000  -0.8518   0.05301   0.04181  -0.0183  0.2500  0.0745  -4.3251   0.0000   0.2206
  -8.500  -0.8282   0.04648   0.03477  -0.0164  0.2500  0.0817  -4.1369   0.0000   0.2227
  -8.000  -0.7957   0.04126   0.02844  -0.0144  0.2500  0.0963  -3.9044   0.0000   0.2247
  -7.500  -0.7579   0.03740   0.02429  -0.0127  0.2500  0.1198  -3.5633   0.0000   0.2265
  -7.000  -0.7186   0.03443   0.02120  -0.0110  0.2500  0.1534  -3.1871   0.0000   0.2285
  -6.500  -0.6746   0.03157   0.01809  -0.0094  0.2500  0.1935  -2.8099   0.0000   0.2302
  -6.000  -0.6298   0.02922   0.01550  -0.0079  0.2500  0.2449  -2.4774   0.0000   0.2320
  -5.500  -0.5754   0.02709   0.01269  -0.0071  0.2500  0.2500  -2.1523   0.0000   0.2325
  -5.000  -0.5242   0.02602   0.01093  -0.0061  0.2500  0.2500  -1.8630   0.0000   0.2335
  -4.500  -0.4733   0.02528   0.00957  -0.0052  0.2500  0.2500  -1.5774   0.0000   0.2345
  -4.000  -0.4218   0.02470   0.00837  -0.0044  0.2500  0.2500  -1.3391   0.0000   0.2353
  -3.500  -0.3698   0.02424   0.00745  -0.0037  0.2500  0.2500  -1.1151   0.0000   0.2359
  -3.000  -0.3175   0.02386   0.00668  -0.0031  0.2500  0.2500  -0.9533   0.0000   0.2364
  -2.500  -0.2649   0.02356   0.00599  -0.0025  0.2500  0.2500  -0.8262   0.0000   0.2368
  -2.000  -0.2122   0.02333   0.00549  -0.0020  0.2500  0.2500  -0.7115   0.0000   0.2371
  -1.500  -0.1592   0.02315   0.00512  -0.0015  0.2500  0.2500  -0.6072   0.0000   0.2373
  -1.000  -0.1062   0.02302   0.00482  -0.0010  0.2500  0.2500  -0.5170   0.0000   0.2375
  -0.500  -0.0531   0.02295   0.00466  -0.0005  0.2500  0.2500  -0.4407   0.0000   0.2375
   0.000   0.0000   0.02292   0.00461  -0.0000  0.2500  0.2500  -0.3750   0.0000   0.8318
   0.500   0.0531   0.02295   0.00466   0.0005  0.2500  0.2500  -0.4405   0.0000   0.2379
   1.000   0.1062   0.02302   0.00482   0.0009  0.2500  0.2500  -0.5171   0.0000   0.2377
   1.500   0.1593   0.02315   0.00512   0.0014  0.2500  0.2500  -0.6071   0.0000   0.2375
   2.000   0.2122   0.02333   0.00549   0.0020  0.2500  0.2500  -0.7110   0.0000   0.2372
   2.500   0.2650   0.02356   0.00599   0.0025  0.2500  0.2500  -0.8257   0.0000   0.2369
   3.000   0.3176   0.02386   0.00668   0.0031  0.2500  0.2500  -0.9539   0.0000   0.2365
   3.500   0.3699   0.02424   0.00744   0.0037  0.2500  0.2500  -1.1156   0.0000   0.2359
   4.000   0.4218   0.02470   0.00837   0.0044  0.2500  0.2500  -1.3395   0.0000   0.2353
   4.500   0.4733   0.02528   0.00957   0.0051  0.2500  0.2500  -1.5761   0.0000   0.2345
   5.000   0.5242   0.02602   0.01093   0.0061  0.2500  0.2500  -1.8616   0.0000   0.2335
   5.500   0.5755   0.02709   0.01269   0.0070  0.2500  0.2500  -2.1508   0.0000   0.2326
   6.000   0.6298   0.02922   0.01550   0.0079  0.2448  0.2500  -2.4756   0.0000   0.2320
   6.500   0.6745   0.03156   0.01808   0.0094  0.1932  0.2500  -2.8080   0.0000   0.2302
   7.000   0.7185   0.03443   0.02120   0.0109  0.1532  0.2500  -3.1857   0.0000   0.2285
   7.500   0.7579   0.03740   0.02428   0.0127  0.1197  0.2500  -3.5624   0.0000   0.2266
   8.000   0.7959   0.04128   0.02845   0.0144  0.0965  0.2500  -3.9038   0.0000   0.2248
   8.500   0.8283   0.04649   0.03478   0.0164  0.0818  0.2500  -4.1363   0.0000   0.2227
   9.000   0.8521   0.05300   0.04179   0.0183  0.0746  0.2500  -4.3270   0.0000   0.2206
   9.500   0.8476   0.06130   0.05116   0.0199  0.0687  0.2500  -4.2922   0.0000   0.2182
  10.000   0.8226   0.07032   0.06075   0.0201  0.0654  0.2500  -4.1756   0.0000   0.2169
  10.500   0.7685   0.08505   0.07572   0.0123  0.0681  0.2500  -3.7749   0.0000   0.2247
  11.000   0.7281   0.10354   0.09404  -0.0002  0.0700  0.2500  -3.3164   0.0000   0.2406
  11.500   0.7072   0.11806   0.10842  -0.0082  0.0684  0.2500  -3.0254   0.0000   0.2516
  12.000   0.6970   0.12967   0.11995  -0.0137  0.0654  0.2500  -2.8519   0.0000   0.2594
  12.500   0.6919   0.14061   0.13083  -0.0185  0.0646  0.2500  -2.6995   0.0000   0.2661
  13.000   0.6905   0.15104   0.14123  -0.0228  0.0645  0.2500  -2.5640   0.0000   0.2721
  13.500   0.6918   0.16108   0.15125  -0.0271  0.0651  0.2500  -2.4384   0.0000   0.2777
  14.000   0.6950   0.17067   0.16083  -0.0311  0.0665  0.2500  -2.3209   0.0000   0.2830
  14.500   0.7010   0.17992   0.17017  -0.0348  0.0689  0.2500  -2.2194   0.0000   0.2875
  15.000   0.7089   0.18866   0.17890  -0.0385  0.0697  0.2500  -2.1355   0.0000   0.2917
  15.500   0.7170   0.19664   0.18689  -0.0425  0.0670  0.2500  -2.0616   0.0000   0.2962
  16.000   0.7273   0.20476   0.19502  -0.0463  0.0667  0.2500  -1.9914   0.0000   0.3000
  17.000   0.4205   0.14153   0.13309  -0.0071  0.1179  0.2500  -1.1137   0.0000   0.2622
  17.500   0.4157   0.14312   0.13466  -0.0115  0.1145  0.2500  -1.0035   0.0000   0.2726
  18.000   0.4276   0.14859   0.14024  -0.0138  0.1014  0.2500  -0.9965   0.0000   0.2766
  18.500   0.4612   0.16355   0.15528  -0.0138  0.0967  0.2500  -1.1234   0.0000   0.2735
  19.000   0.4658   0.16816   0.15990  -0.0172  0.0964  0.2500  -1.0807   0.0000   0.2802
  19.500   0.4694   0.17196   0.16371  -0.0208  0.0956  0.2500  -1.0301   0.0000   0.2872
  20.000   0.4731   0.17543   0.16720  -0.0246  0.0928  0.2500  -0.9763   0.0000   0.2943


