xflr5 v6.42

 Calculated polar for: SD8020

 1 1 Reynolds number fixed          Mach number fixed         

 xtrf =   0.250 (top)        0.250 (bottom)
 Mach =   0.000     Re =     0.100 e 6     Ncrit =   5.000

  alpha     CL        CD       CDp       Cm    Top Xtr Bot Xtr   Cpmin    Chinge    XCp    
 ------- -------- --------- --------- -------- ------- ------- -------- --------- ---------
 -10.000  -0.9561   0.04132   0.03228  -0.0189  0.2500  0.0264  -5.9972   0.0000   0.2207
  -9.500  -0.9313   0.03790   0.02851  -0.0168  0.2500  0.0302  -5.6237   0.0000   0.2231
  -9.000  -0.8989   0.03442   0.02446  -0.0147  0.2500  0.0354  -5.2654   0.0000   0.2253
  -8.500  -0.8615   0.03070   0.02015  -0.0125  0.2500  0.0389  -4.9205   0.0000   0.2276
  -8.000  -0.8250   0.02745   0.01669  -0.0104  0.2500  0.0466  -4.5248   0.0000   0.2300
  -7.500  -0.7830   0.02526   0.01417  -0.0087  0.2500  0.0612  -4.0723   0.0000   0.2319
  -7.000  -0.7394   0.02328   0.01197  -0.0071  0.2500  0.0803  -3.6251   0.0000   0.2339
  -6.500  -0.6933   0.02178   0.01040  -0.0060  0.2500  0.1114  -3.1509   0.0000   0.2353
  -6.000  -0.6461   0.02042   0.00904  -0.0050  0.2500  0.1498  -2.6901   0.0000   0.2367
  -5.500  -0.5978   0.01923   0.00778  -0.0040  0.2500  0.1941  -2.3072   0.0000   0.2381
  -5.000  -0.5485   0.01820   0.00679  -0.0031  0.2500  0.2494  -1.9958   0.0000   0.2395
  -4.500  -0.4950   0.01768   0.00584  -0.0024  0.2500  0.2500  -1.6915   0.0000   0.2405
  -4.000  -0.4409   0.01732   0.00506  -0.0020  0.2500  0.2500  -1.4118   0.0000   0.2413
  -3.500  -0.3864   0.01704   0.00447  -0.0016  0.2500  0.2500  -1.1755   0.0000   0.2419
  -3.000  -0.3317   0.01682   0.00398  -0.0012  0.2500  0.2500  -0.9882   0.0000   0.2425
  -2.500  -0.2766   0.01664   0.00355  -0.0010  0.2500  0.2500  -0.8489   0.0000   0.2428
  -2.000  -0.2214   0.01650   0.00324  -0.0008  0.2500  0.2500  -0.7296   0.0000   0.2430
  -1.500  -0.1661   0.01639   0.00301  -0.0006  0.2500  0.2500  -0.6167   0.0000   0.2432
  -1.000  -0.1107   0.01632   0.00282  -0.0004  0.2500  0.2500  -0.5221   0.0000   0.2433
  -0.500  -0.0554   0.01627   0.00272  -0.0002  0.2500  0.2500  -0.4431   0.0000   0.2433
   0.000   0.0000   0.01626   0.00270  -0.0000  0.2500  0.2500  -0.3750   0.0000   0.8403
   0.500   0.0554   0.01627   0.00272   0.0002  0.2500  0.2500  -0.4432   0.0000   0.2437
   1.000   0.1108   0.01632   0.00282   0.0004  0.2500  0.2500  -0.5221   0.0000   0.2435
   1.500   0.1661   0.01639   0.00301   0.0006  0.2500  0.2500  -0.6167   0.0000   0.2433
   2.000   0.2214   0.01650   0.00324   0.0008  0.2500  0.2500  -0.7289   0.0000   0.2431
   2.500   0.2766   0.01664   0.00355   0.0010  0.2500  0.2500  -0.8482   0.0000   0.2429
   3.000   0.3317   0.01682   0.00398   0.0012  0.2500  0.2500  -0.9887   0.0000   0.2425
   3.500   0.3864   0.01704   0.00447   0.0015  0.2500  0.2500  -1.1761   0.0000   0.2420
   4.000   0.4409   0.01732   0.00506   0.0019  0.2500  0.2500  -1.4124   0.0000   0.2413
   4.500   0.4950   0.01768   0.00584   0.0024  0.2500  0.2500  -1.6900   0.0000   0.2406
   5.000   0.5486   0.01820   0.00679   0.0031  0.2495  0.2500  -1.9942   0.0000   0.2396
   5.500   0.5978   0.01923   0.00777   0.0040  0.1938  0.2500  -2.3053   0.0000   0.2381
   6.000   0.6461   0.02042   0.00904   0.0050  0.1496  0.2500  -2.6883   0.0000   0.2367
   6.500   0.6933   0.02178   0.01040   0.0060  0.1112  0.2500  -3.1495   0.0000   0.2353
   7.000   0.7393   0.02329   0.01198   0.0071  0.0802  0.2500  -3.6234   0.0000   0.2339
   7.500   0.7830   0.02527   0.01418   0.0087  0.0613  0.2500  -4.0704   0.0000   0.2319
   8.000   0.8250   0.02746   0.01670   0.0104  0.0468  0.2500  -4.5227   0.0000   0.2300
   8.500   0.8618   0.03063   0.02009   0.0124  0.0391  0.2500  -4.9232   0.0000   0.2277
   9.000   0.8990   0.03441   0.02445   0.0146  0.0354  0.2500  -5.2657   0.0000   0.2254
   9.500   0.9313   0.03793   0.02854   0.0168  0.0303  0.2500  -5.6213   0.0000   0.2231
  10.000   0.9563   0.04131   0.03228   0.0189  0.0264  0.2500  -5.9971   0.0000   0.2208
  10.500   0.9565   0.04846   0.04006   0.0221  0.0246  0.2500  -6.0567   0.0000   0.2170
  11.000   0.9377   0.05536   0.04757   0.0253  0.0240  0.2500  -6.0128   0.0000   0.2125
  11.500   0.9052   0.06462   0.05734   0.0229  0.0239  0.2500  -5.8598   0.0000   0.2133
  12.000   0.8609   0.07928   0.07238   0.0123  0.0241  0.2500  -5.5207   0.0000   0.2236
  12.500   0.8102   0.10011   0.09345  -0.0029  0.0248  0.2500  -4.9326   0.0000   0.2410
  13.000   0.7466   0.12805   0.12133  -0.0175  0.0260  0.2500  -3.8052   0.0000   0.2612
  13.500   0.7335   0.14122   0.13444  -0.0230  0.0256  0.2500  -3.4857   0.0000   0.2689
  14.000   0.7282   0.15272   0.14590  -0.0276  0.0253  0.2500  -3.2506   0.0000   0.2750
  14.500   0.7273   0.16380   0.15695  -0.0320  0.0251  0.2500  -3.0261   0.0000   0.2807
  15.500   0.7325   0.18532   0.17838  -0.0417  0.0227  0.2500  -2.5888   0.0000   0.2930
  16.000   0.7385   0.19525   0.18829  -0.0467  0.0214  0.2500  -2.4384   0.0000   0.2989
  16.500   0.7479   0.20418   0.19722  -0.0507  0.0215  0.2500  -2.3578   0.0000   0.3030
  17.000   0.7592   0.21272   0.20576  -0.0545  0.0221  0.2500  -2.3080   0.0000   0.3065
  17.500   0.7725   0.22093   0.21399  -0.0577  0.0230  0.2500  -2.3073   0.0000   0.3088
  18.000   0.7912   0.23678   0.22992  -0.0587  0.0381  0.2500  -2.1530   0.0000   0.3081
  18.500   0.8041   0.24485   0.23800  -0.0630  0.0380  0.2500  -2.1161   0.0000   0.3117
  19.000   0.8157   0.25167   0.24483  -0.0680  0.0378  0.2500  -2.0556   0.0000   0.3160
  19.500   0.8266   0.25666   0.24981  -0.0745  0.0368  0.2500  -1.9489   0.0000   0.3220
  20.000   0.8410   0.26285   0.25601  -0.0803  0.0331  0.2500  -1.8684   0.0000   0.3267


