xflr5 v6.42

 Calculated polar for: SD8020

 1 1 Reynolds number fixed          Mach number fixed         

 xtrf =   0.250 (top)        0.250 (bottom)
 Mach =   0.000     Re =     0.015 e 6     Ncrit =   5.000

  alpha     CL        CD       CDp       Cm    Top Xtr Bot Xtr   Cpmin    Chinge    XCp    
 ------- -------- --------- --------- -------- ------- ------- -------- --------- ---------
 -10.000  -0.6891   0.11298   0.09894   0.0063  0.2500  0.2056  -2.4819   0.0000   0.2514
  -9.500  -0.6963   0.10229   0.08835   0.0020  0.2500  0.2110  -2.5554   0.0000   0.2456
  -9.000  -0.7020   0.09223   0.07827  -0.0008  0.2500  0.2183  -2.6042   0.0000   0.2420
  -8.500  -0.7211   0.08088   0.06678  -0.0053  0.2500  0.2262  -2.7354   0.0000   0.2361
  -8.000  -0.7198   0.07242   0.05802  -0.0061  0.2500  0.2500  -2.7030   0.0000   0.2354
  -7.500  -0.7096   0.06082   0.04552  -0.0095  0.2500  0.2500  -2.7521   0.0000   0.2305
  -7.000  -0.6743   0.05157   0.03505  -0.0112  0.2500  0.2500  -2.6664   0.0000   0.2274
  -6.500  -0.6262   0.04579   0.02820  -0.0112  0.2500  0.2500  -2.4403   0.0000   0.2262
  -6.000  -0.5796   0.04254   0.02380  -0.0103  0.2500  0.2500  -2.1630   0.0000   0.2266
  -5.500  -0.5335   0.04038   0.02070  -0.0092  0.2500  0.2500  -1.9102   0.0000   0.2274
  -5.000  -0.4871   0.03878   0.01820  -0.0082  0.2500  0.2500  -1.6528   0.0000   0.2281
  -4.500  -0.4405   0.03751   0.01611  -0.0072  0.2500  0.2500  -1.4281   0.0000   0.2288
  -4.000  -0.3933   0.03648   0.01420  -0.0063  0.2500  0.2500  -1.2198   0.0000   0.2295
  -3.500  -0.3456   0.03563   0.01271  -0.0054  0.2500  0.2500  -1.0360   0.0000   0.2301
  -3.000  -0.2972   0.03493   0.01147  -0.0045  0.2500  0.2500  -0.8990   0.0000   0.2306
  -2.500  -0.2484   0.03437   0.01034  -0.0037  0.2500  0.2500  -0.7893   0.0000   0.2311
  -2.000  -0.1991   0.03393   0.00952  -0.0030  0.2500  0.2500  -0.6820   0.0000   0.2314
  -1.500  -0.1496   0.03360   0.00890  -0.0022  0.2500  0.2500  -0.5907   0.0000   0.2316
  -1.000  -0.0998   0.03337   0.00841  -0.0015  0.2500  0.2500  -0.5082   0.0000   0.2318
  -0.500  -0.0499   0.03324   0.00815  -0.0007  0.2500  0.2500  -0.4369   0.0000   0.2319
   0.000   0.0000   0.03319   0.00807  -0.0000  0.2500  0.2500  -0.3750   0.0000   0.8908
   0.500   0.0500   0.03324   0.00815   0.0007  0.2500  0.2500  -0.4368   0.0000   0.2322
   1.000   0.0999   0.03337   0.00841   0.0014  0.2500  0.2500  -0.5082   0.0000   0.2320
   1.500   0.1496   0.03360   0.00890   0.0022  0.2500  0.2500  -0.5906   0.0000   0.2318
   2.000   0.1992   0.03393   0.00952   0.0029  0.2500  0.2500  -0.6816   0.0000   0.2315
   2.500   0.2484   0.03437   0.01034   0.0037  0.2500  0.2500  -0.7890   0.0000   0.2311
   3.000   0.2972   0.03493   0.01146   0.0045  0.2500  0.2500  -0.8996   0.0000   0.2307
   3.500   0.3456   0.03563   0.01271   0.0054  0.2500  0.2500  -1.0367   0.0000   0.2302
   4.000   0.3934   0.03648   0.01420   0.0063  0.2500  0.2500  -1.2202   0.0000   0.2296
   4.500   0.4405   0.03751   0.01611   0.0072  0.2500  0.2500  -1.4284   0.0000   0.2289
   5.000   0.4872   0.03878   0.01820   0.0082  0.2500  0.2500  -1.6517   0.0000   0.2281
   5.500   0.5336   0.04038   0.02070   0.0092  0.2500  0.2500  -1.9090   0.0000   0.2274
   6.000   0.5797   0.04253   0.02380   0.0103  0.2500  0.2500  -2.1618   0.0000   0.2267
   6.500   0.6263   0.04579   0.02819   0.0112  0.2500  0.2500  -2.4389   0.0000   0.2263
   7.000   0.6744   0.05158   0.03506   0.0112  0.2500  0.2500  -2.6647   0.0000   0.2275
   7.500   0.7097   0.06084   0.04555   0.0095  0.2500  0.2500  -2.7500   0.0000   0.2306
   8.000   0.7200   0.07245   0.05805   0.0060  0.2500  0.2500  -2.7016   0.0000   0.2355
   8.500   0.7211   0.08090   0.06680   0.0052  0.2260  0.2500  -2.7336   0.0000   0.2362
   9.000   0.7026   0.09223   0.07826   0.0007  0.2181  0.2500  -2.6052   0.0000   0.2421
   9.500   0.6987   0.10214   0.08821  -0.0018  0.2105  0.2500  -2.5680   0.0000   0.2453
  10.000   0.6896   0.11302   0.09898  -0.0064  0.2056  0.2500  -2.4815   0.0000   0.2516
  10.500   0.6738   0.12349   0.10931  -0.0119  0.2000  0.2500  -2.3548   0.0000   0.2594
  11.000   0.6817   0.13137   0.11720  -0.0126  0.1828  0.2500  -2.4033   0.0000   0.2598
  11.500   0.6754   0.14118   0.12693  -0.0170  0.1805  0.2500  -2.3110   0.0000   0.2661
  12.000   0.6758   0.15077   0.13649  -0.0207  0.1806  0.2500  -2.2485   0.0000   0.2712
  12.500   0.6802   0.16025   0.14598  -0.0241  0.1819  0.2500  -2.2016   0.0000   0.2756
  13.000   0.6826   0.16901   0.15473  -0.0276  0.1811  0.2500  -2.1478   0.0000   0.2802
  13.500   0.6842   0.17691   0.16261  -0.0311  0.1774  0.2500  -2.0942   0.0000   0.2847
  14.000   0.6899   0.18480   0.17051  -0.0343  0.1743  0.2500  -2.0562   0.0000   0.2885
  14.500   0.7085   0.19576   0.18156  -0.0370  0.1838  0.2500  -2.0459   0.0000   0.2907
  15.000   0.7082   0.20617   0.19203  -0.0457  0.2500  0.2500  -1.8590   0.0000   0.3026
  15.500   0.7189   0.21397   0.20002  -0.0488  0.2500  0.2500  -1.8312   0.0000   0.3054
  16.000   0.7304   0.22173   0.20781  -0.0520  0.2500  0.2500  -1.8033   0.0000   0.3082
  16.500   0.7427   0.22944   0.21555  -0.0553  0.2500  0.2500  -1.7750   0.0000   0.3108
  17.000   0.7555   0.23709   0.22323  -0.0586  0.2500  0.2500  -1.7463   0.0000   0.3134
  17.500   0.7689   0.24470   0.23089  -0.0620  0.2500  0.2500  -1.7175   0.0000   0.3159
  18.000   0.7827   0.25229   0.23852  -0.0655  0.2500  0.2500  -1.6888   0.0000   0.3183
  18.500   0.7969   0.25986   0.24613  -0.0690  0.2500  0.2500  -1.6700   0.0000   0.3206
  19.000   0.8083   0.26455   0.25084  -0.0726  0.2405  0.2500  -1.6719   0.0000   0.3231
  20.000   0.8403   0.28069   0.26704  -0.0790  0.2262  0.2500  -1.7040   0.0000   0.3259


