xflr5 v6.42

 Calculated polar for: SD8020

 1 1 Reynolds number fixed          Mach number fixed         

 xtrf =   0.250 (top)        0.250 (bottom)
 Mach =   0.000     Re =     0.550 e 6     Ncrit =   5.000

  alpha     CL        CD       CDp       Cm    Top Xtr Bot Xtr   Cpmin    Chinge    XCp    
 ------- -------- --------- --------- -------- ------- ------- -------- --------- ---------
 -10.000  -1.0581   0.02067   0.01290  -0.0069  0.2500  0.0087  -7.7744   0.0000   0.2337
  -9.500  -1.0158   0.01899   0.01096  -0.0053  0.2500  0.0106  -7.1675   0.0000   0.2356
  -9.000  -0.9686   0.01791   0.00975  -0.0044  0.2500  0.0123  -6.4989   0.0000   0.2369
  -8.500  -0.9196   0.01702   0.00869  -0.0036  0.2500  0.0142  -5.8390   0.0000   0.2381
  -8.000  -0.8701   0.01612   0.00761  -0.0029  0.2500  0.0165  -5.2117   0.0000   0.2393
  -7.500  -0.8204   0.01515   0.00653  -0.0021  0.2500  0.0213  -4.6115   0.0000   0.2405
  -7.000  -0.7688   0.01442   0.00569  -0.0016  0.2500  0.0270  -4.0284   0.0000   0.2415
  -6.500  -0.7170   0.01369   0.00494  -0.0011  0.2500  0.0394  -3.4693   0.0000   0.2425
  -6.000  -0.6645   0.01307   0.00432  -0.0007  0.2500  0.0557  -2.9343   0.0000   0.2434
  -5.500  -0.6113   0.01251   0.00374  -0.0004  0.2500  0.0753  -2.4392   0.0000   0.2442
  -5.000  -0.5580   0.01194   0.00325  -0.0001  0.2500  0.1043  -2.0955   0.0000   0.2450
  -4.500  -0.5043   0.01143   0.00282   0.0001  0.2500  0.1401  -1.7727   0.0000   0.2457
  -4.000  -0.4502   0.01095   0.00246   0.0003  0.2500  0.1797  -1.4646   0.0000   0.2464
  -3.500  -0.3958   0.01052   0.00212   0.0004  0.2500  0.2260  -1.2132   0.0000   0.2471
  -3.000  -0.3402   0.01027   0.00188   0.0004  0.2500  0.2500  -1.0138   0.0000   0.2476
  -2.500  -0.2837   0.01020   0.00170   0.0004  0.2500  0.2500  -0.8623   0.0000   0.2478
  -2.000  -0.2270   0.01014   0.00154   0.0003  0.2500  0.2500  -0.7401   0.0000   0.2481
  -1.500  -0.1703   0.01010   0.00143   0.0003  0.2500  0.2500  -0.6216   0.0000   0.2482
  -1.000  -0.1135   0.01007   0.00135   0.0002  0.2500  0.2500  -0.5247   0.0000   0.2483
  -0.500  -0.0568   0.01005   0.00130   0.0001  0.2500  0.2500  -0.4434   0.0000   0.2483
   0.000   0.0000   0.01004   0.00129  -0.0000  0.2500  0.2500  -0.3733   0.0000   0.9522
   0.500   0.0568   0.01005   0.00130  -0.0001  0.2500  0.2500  -0.4435   0.0000   0.2487
   1.000   0.1136   0.01007   0.00135  -0.0002  0.2500  0.2500  -0.5248   0.0000   0.2485
   1.500   0.1703   0.01010   0.00143  -0.0003  0.2500  0.2500  -0.6209   0.0000   0.2483
   2.000   0.2270   0.01014   0.00154  -0.0003  0.2500  0.2500  -0.7393   0.0000   0.2482
   2.500   0.2837   0.01020   0.00170  -0.0004  0.2500  0.2500  -0.8614   0.0000   0.2479
   3.000   0.3402   0.01027   0.00188  -0.0005  0.2500  0.2500  -1.0142   0.0000   0.2476
   3.500   0.3958   0.01052   0.00212  -0.0004  0.2257  0.2500  -1.2140   0.0000   0.2471
   4.000   0.4502   0.01095   0.00246  -0.0003  0.1798  0.2500  -1.4631   0.0000   0.2464
   5.000   0.5580   0.01194   0.00325   0.0001  0.1041  0.2500  -2.0936   0.0000   0.2450
   5.500   0.6113   0.01251   0.00374   0.0004  0.0755  0.2500  -2.4369   0.0000   0.2442
   6.000   0.6645   0.01306   0.00431   0.0007  0.0557  0.2500  -2.9330   0.0000   0.2434
   6.500   0.7170   0.01369   0.00494   0.0011  0.0395  0.2500  -3.4678   0.0000   0.2425
   7.000   0.7688   0.01441   0.00568   0.0015  0.0274  0.2500  -4.0273   0.0000   0.2416
   7.500   0.8204   0.01514   0.00653   0.0021  0.0215  0.2500  -4.6099   0.0000   0.2405
   8.000   0.8701   0.01609   0.00759   0.0029  0.0167  0.2500  -5.2124   0.0000   0.2393
   8.500   0.9196   0.01702   0.00868   0.0036  0.0142  0.2500  -5.8378   0.0000   0.2381
   9.000   0.9686   0.01790   0.00973   0.0044  0.0124  0.2500  -6.4976   0.0000   0.2369
   9.500   1.0159   0.01897   0.01094   0.0053  0.0106  0.2500  -7.1664   0.0000   0.2356
  10.000   1.0582   0.02065   0.01287   0.0069  0.0087  0.2500  -7.7741   0.0000   0.2338
  10.500   1.1029   0.02181   0.01425   0.0080  0.0080  0.2500  -8.4652   0.0000   0.2323
  11.000   1.1441   0.02328   0.01595   0.0096  0.0070  0.2500  -9.1274   0.0000   0.2306
  11.500   1.1821   0.02495   0.01783   0.0114  0.0061  0.2500  -9.7789   0.0000   0.2286
  12.000   1.2145   0.02697   0.02007   0.0136  0.0054  0.2500  -10.4306   0.0000   0.2263
  12.500   1.2298   0.03022   0.02366   0.0174  0.0047  0.2500  -10.9441   0.0000   0.2226
  13.000   1.2222   0.03452   0.02834   0.0225  0.0044  0.2500  -11.2243   0.0000   0.2176
  13.500   1.2240   0.03896   0.03308   0.0237  0.0043  0.2500  -11.6415   0.0000   0.2157
  14.000   1.2161   0.04579   0.04029   0.0215  0.0042  0.2500  -11.9043   0.0000   0.2164
  14.500   1.1946   0.05667   0.05153   0.0147  0.0042  0.2500  -11.9164   0.0000   0.2207
  15.000   1.1503   0.07323   0.06840   0.0039  0.0042  0.2500  -11.5089   0.0000   0.2286
  15.500   1.0814   0.09464   0.09011  -0.0081  0.0043  0.2500  -10.6239   0.0000   0.2387
  16.000   1.0030   0.11860   0.11430  -0.0204  0.0044  0.2500  -9.4395   0.0000   0.2512
  16.500   0.9553   0.13824   0.13411  -0.0302  0.0045  0.2500  -8.6497   0.0000   0.2621
  17.500   0.7979   0.20769   0.20360  -0.0603  0.0044  0.2500  -3.7569   0.0000   0.3086
  18.000   0.8073   0.21715   0.21308  -0.0647  0.0042  0.2500  -3.6298   0.0000   0.3126
  18.500   0.8169   0.22698   0.22291  -0.0693  0.0040  0.2500  -3.4230   0.0000   0.3168
  19.000   0.8276   0.23701   0.23297  -0.0739  0.0037  0.2500  -3.1570   0.0000   0.3209
  19.500   0.8394   0.24705   0.24301  -0.0786  0.0032  0.2500  -2.8348   0.0000   0.3248
  20.000   0.8528   0.25599   0.25197  -0.0832  0.0030  0.2500  -2.6220   0.0000   0.3280


