xflr5 v6.42

 Calculated polar for: SD8020

 1 1 Reynolds number fixed          Mach number fixed         

 xtrf =   0.250 (top)        0.250 (bottom)
 Mach =   0.000     Re =     0.055 e 6     Ncrit =   5.000

  alpha     CL        CD       CDp       Cm    Top Xtr Bot Xtr   Cpmin    Chinge    XCp    
 ------- -------- --------- --------- -------- ------- ------- -------- --------- ---------
 -10.000  -0.8782   0.05969   0.05064  -0.0218  0.2500  0.0475  -4.7856   0.0000   0.2162
  -9.500  -0.8862   0.05148   0.04163  -0.0198  0.2500  0.0496  -4.8285   0.0000   0.2192
  -9.000  -0.8713   0.04452   0.03368  -0.0173  0.2500  0.0536  -4.7397   0.0000   0.2220
  -8.500  -0.8432   0.04002   0.02877  -0.0153  0.2500  0.0630  -4.4333   0.0000   0.2242
  -8.000  -0.8054   0.03582   0.02369  -0.0133  0.2500  0.0748  -4.1302   0.0000   0.2263
  -7.500  -0.7661   0.03242   0.02004  -0.0114  0.2500  0.0934  -3.7596   0.0000   0.2283
  -7.000  -0.7248   0.02971   0.01714  -0.0097  0.2500  0.1218  -3.3608   0.0000   0.2302
  -6.500  -0.6814   0.02755   0.01480  -0.0082  0.2500  0.1596  -2.9456   0.0000   0.2320
  -6.000  -0.6366   0.02564   0.01282  -0.0068  0.2500  0.2071  -2.5673   0.0000   0.2338
  -5.500  -0.5892   0.02393   0.01094  -0.0054  0.2500  0.2500  -2.2190   0.0000   0.2356
  -5.000  -0.5362   0.02290   0.00929  -0.0046  0.2500  0.2500  -1.9221   0.0000   0.2366
  -4.500  -0.4831   0.02227   0.00809  -0.0039  0.2500  0.2500  -1.6257   0.0000   0.2372
  -4.000  -0.4297   0.02178   0.00705  -0.0034  0.2500  0.2500  -1.3691   0.0000   0.2377
  -3.500  -0.3761   0.02140   0.00625  -0.0030  0.2500  0.2500  -1.1388   0.0000   0.2380
  -3.000  -0.3224   0.02109   0.00559  -0.0026  0.2500  0.2500  -0.9661   0.0000   0.2382
  -2.500  -0.2689   0.02085   0.00501  -0.0021  0.2500  0.2500  -0.8346   0.0000   0.2386
  -2.000  -0.2153   0.02066   0.00458  -0.0016  0.2500  0.2500  -0.7183   0.0000   0.2389
  -1.500  -0.1616   0.02051   0.00426  -0.0012  0.2500  0.2500  -0.6108   0.0000   0.2391
  -1.000  -0.1078   0.02041   0.00401  -0.0008  0.2500  0.2500  -0.5189   0.0000   0.2392
  -0.500  -0.0539   0.02035   0.00388  -0.0004  0.2500  0.2500  -0.4414   0.0000   0.2393
   0.000   0.0000   0.02033   0.00384  -0.0000  0.2500  0.2500  -0.3750   0.0000   0.8237
   0.500   0.0539   0.02035   0.00388   0.0004  0.2500  0.2500  -0.4415   0.0000   0.2397
   1.000   0.1078   0.02041   0.00401   0.0008  0.2500  0.2500  -0.5190   0.0000   0.2394
   1.500   0.1616   0.02051   0.00426   0.0012  0.2500  0.2500  -0.6107   0.0000   0.2392
   2.000   0.2153   0.02066   0.00458   0.0016  0.2500  0.2500  -0.7177   0.0000   0.2390
   2.500   0.2690   0.02085   0.00501   0.0021  0.2500  0.2500  -0.8340   0.0000   0.2386
   3.000   0.3224   0.02109   0.00559   0.0025  0.2500  0.2500  -0.9667   0.0000   0.2382
   3.500   0.3761   0.02140   0.00625   0.0030  0.2500  0.2500  -1.1393   0.0000   0.2380
   4.000   0.4297   0.02178   0.00705   0.0034  0.2500  0.2500  -1.3695   0.0000   0.2377
   4.500   0.4831   0.02226   0.00809   0.0039  0.2500  0.2500  -1.6244   0.0000   0.2373
   5.000   0.5362   0.02290   0.00929   0.0046  0.2500  0.2500  -1.9206   0.0000   0.2366
   5.500   0.5892   0.02393   0.01094   0.0054  0.2500  0.2500  -2.2174   0.0000   0.2356
   6.000   0.6366   0.02564   0.01282   0.0068  0.2069  0.2500  -2.5654   0.0000   0.2338
   6.500   0.6814   0.02755   0.01481   0.0082  0.1593  0.2500  -2.9444   0.0000   0.2320
   7.000   0.7247   0.02972   0.01714   0.0097  0.1216  0.2500  -3.3596   0.0000   0.2302
   7.500   0.7661   0.03243   0.02005   0.0114  0.0935  0.2500  -3.7578   0.0000   0.2283
   8.000   0.8055   0.03582   0.02368   0.0132  0.0749  0.2500  -4.1298   0.0000   0.2263
   8.500   0.8433   0.04006   0.02882   0.0153  0.0632  0.2500  -4.4307   0.0000   0.2242
   9.000   0.8715   0.04451   0.03366   0.0172  0.0537  0.2500  -4.7408   0.0000   0.2221
   9.500   0.8864   0.05147   0.04161   0.0197  0.0497  0.2500  -4.8297   0.0000   0.2192
  10.000   0.8785   0.05969   0.05065   0.0218  0.0476  0.2500  -4.7864   0.0000   0.2162
  10.500   0.8408   0.06930   0.06078   0.0217  0.0474  0.2500  -4.5859   0.0000   0.2146
  11.000   0.7810   0.08649   0.07823   0.0094  0.0490  0.2500  -4.1008   0.0000   0.2277
  11.500   0.7340   0.10796   0.09960  -0.0045  0.0504  0.2500  -3.4919   0.0000   0.2457
  12.000   0.7133   0.12282   0.11434  -0.0118  0.0505  0.2500  -3.1561   0.0000   0.2559
  12.500   0.7032   0.13520   0.12656  -0.0173  0.0504  0.2500  -2.9261   0.0000   0.2637
  13.000   0.6986   0.14651   0.13782  -0.0221  0.0505  0.2500  -2.7403   0.0000   0.2703
  13.500   0.6979   0.15703   0.14839  -0.0265  0.0500  0.2500  -2.5844   0.0000   0.2764
  14.000   0.6999   0.16639   0.15774  -0.0309  0.0469  0.2500  -2.4707   0.0000   0.2821
  14.500   0.7083   0.17410   0.16546  -0.0339  0.0429  0.2500  -2.4568   0.0000   0.2853
  15.000   0.7129   0.18373   0.17507  -0.0383  0.0438  0.2500  -2.3033   0.0000   0.2908
  15.500   0.7196   0.19318   0.18451  -0.0427  0.0458  0.2500  -2.1535   0.0000   0.2960
  16.000   0.7291   0.20222   0.19355  -0.0466  0.0492  0.2500  -2.0337   0.0000   0.3001
  16.500   0.7598   0.22022   0.21171  -0.0462  0.0753  0.2500  -2.0294   0.0000   0.2969
  17.000   0.7670   0.22733   0.21880  -0.0508  0.0750  0.2500  -1.9746   0.0000   0.3018
  17.500   0.7659   0.22936   0.22076  -0.0586  0.0712  0.2500  -1.8285   0.0000   0.3113
  18.000   0.7797   0.23557   0.22700  -0.0625  0.0623  0.2500  -1.8525   0.0000   0.3142
  18.500   0.8142   0.25411   0.24566  -0.0588  0.0560  0.2500  -2.1466   0.0000   0.3059
  19.000   0.8275   0.26273   0.25430  -0.0630  0.0560  0.2500  -2.1204   0.0000   0.3092
  19.500   0.8399   0.27030   0.26189  -0.0675  0.0559  0.2500  -2.0844   0.0000   0.3127
  20.000   0.8504   0.27592   0.26759  -0.0726  0.0557  0.2500  -2.0308   0.0000   0.3169


