xflr5 v6.42

 Calculated polar for: SD8020

 1 1 Reynolds number fixed          Mach number fixed         

 xtrf =   0.250 (top)        0.250 (bottom)
 Mach =   0.000     Re =     0.150 e 6     Ncrit =   5.000

  alpha     CL        CD       CDp       Cm    Top Xtr Bot Xtr   Cpmin    Chinge    XCp    
 ------- -------- --------- --------- -------- ------- ------- -------- --------- ---------
 -10.000  -0.9799   0.03529   0.02677  -0.0168  0.2500  0.0203  -6.3947   0.0000   0.2233
  -9.500  -0.9501   0.03158   0.02251  -0.0144  0.2500  0.0225  -6.0549   0.0000   0.2259
  -9.000  -0.9150   0.02844   0.01891  -0.0122  0.2500  0.0254  -5.6463   0.0000   0.2282
  -8.500  -0.8777   0.02586   0.01610  -0.0104  0.2500  0.0309  -5.1824   0.0000   0.2303
  -8.000  -0.8356   0.02372   0.01361  -0.0086  0.2500  0.0361  -4.7205   0.0000   0.2323
  -7.500  -0.7933   0.02165   0.01126  -0.0068  0.2500  0.0452  -4.2532   0.0000   0.2345
  -7.000  -0.7468   0.02020   0.00970  -0.0057  0.2500  0.0641  -3.7484   0.0000   0.2359
  -6.500  -0.6987   0.01897   0.00835  -0.0047  0.2500  0.0867  -3.2509   0.0000   0.2372
  -6.000  -0.6492   0.01795   0.00728  -0.0040  0.2500  0.1196  -2.7607   0.0000   0.2382
  -5.500  -0.5995   0.01696   0.00628  -0.0033  0.2500  0.1602  -2.3433   0.0000   0.2393
  -5.000  -0.5489   0.01610   0.00546  -0.0026  0.2500  0.2071  -2.0210   0.0000   0.2404
  -4.500  -0.4973   0.01539   0.00475  -0.0020  0.2500  0.2500  -1.7145   0.0000   0.2415
  -4.000  -0.4427   0.01509   0.00409  -0.0016  0.2500  0.2500  -1.4238   0.0000   0.2421
  -3.500  -0.3878   0.01486   0.00360  -0.0013  0.2500  0.2500  -1.1850   0.0000   0.2426
  -3.000  -0.3327   0.01468   0.00320  -0.0011  0.2500  0.2500  -0.9939   0.0000   0.2430
  -2.500  -0.2774   0.01454   0.00284  -0.0008  0.2500  0.2500  -0.8521   0.0000   0.2434
  -2.000  -0.2221   0.01443   0.00259  -0.0006  0.2500  0.2500  -0.7322   0.0000   0.2437
  -1.500  -0.1666   0.01434   0.00239  -0.0005  0.2500  0.2500  -0.6177   0.0000   0.2439
  -1.000  -0.1111   0.01429   0.00224  -0.0003  0.2500  0.2500  -0.5228   0.0000   0.2440
  -0.500  -0.0556   0.01425   0.00216  -0.0002  0.2500  0.2500  -0.4433   0.0000   0.2440
   0.000   0.0000   0.01424   0.00213  -0.0000  0.2500  0.2500  -0.3748   0.0000   0.8778
   0.500   0.0556   0.01425   0.00216   0.0001  0.2500  0.2500  -0.4434   0.0000   0.2443
   1.000   0.1111   0.01429   0.00224   0.0003  0.2500  0.2500  -0.5228   0.0000   0.2442
   1.500   0.1667   0.01434   0.00239   0.0005  0.2500  0.2500  -0.6176   0.0000   0.2440
   2.000   0.2221   0.01443   0.00258   0.0006  0.2500  0.2500  -0.7315   0.0000   0.2437
   2.500   0.2775   0.01454   0.00284   0.0008  0.2500  0.2500  -0.8514   0.0000   0.2435
   3.000   0.3327   0.01468   0.00320   0.0010  0.2500  0.2500  -0.9944   0.0000   0.2431
   3.500   0.3878   0.01486   0.00360   0.0013  0.2500  0.2500  -1.1856   0.0000   0.2427
   4.000   0.4427   0.01509   0.00409   0.0016  0.2500  0.2500  -1.4244   0.0000   0.2421
   4.500   0.4973   0.01539   0.00475   0.0020  0.2500  0.2500  -1.7129   0.0000   0.2415
   5.000   0.5489   0.01610   0.00546   0.0026  0.2069  0.2500  -2.0194   0.0000   0.2404
   5.500   0.5995   0.01696   0.00628   0.0033  0.1602  0.2500  -2.3413   0.0000   0.2393
   6.000   0.6492   0.01795   0.00728   0.0040  0.1195  0.2500  -2.7595   0.0000   0.2383
   6.500   0.6987   0.01897   0.00835   0.0047  0.0866  0.2500  -3.2495   0.0000   0.2372
   7.000   0.7468   0.02020   0.00970   0.0057  0.0641  0.2500  -3.7465   0.0000   0.2359
   7.500   0.7933   0.02165   0.01127   0.0068  0.0454  0.2500  -4.2512   0.0000   0.2345
   8.000   0.8355   0.02373   0.01362   0.0086  0.0363  0.2500  -4.7189   0.0000   0.2323
   8.500   0.8776   0.02586   0.01611   0.0104  0.0310  0.2500  -5.1810   0.0000   0.2303
   9.000   0.9154   0.02837   0.01884   0.0122  0.0255  0.2500  -5.6501   0.0000   0.2282
   9.500   0.9502   0.03157   0.02250   0.0144  0.0226  0.2500  -6.0549   0.0000   0.2259
  10.000   0.9800   0.03528   0.02676   0.0168  0.0203  0.2500  -6.3951   0.0000   0.2233
  10.500   1.0032   0.03887   0.03081   0.0194  0.0181  0.2500  -6.7381   0.0000   0.2206
  11.000   1.0179   0.04212   0.03440   0.0219  0.0160  0.2500  -7.1254   0.0000   0.2177
  11.500   1.0001   0.04848   0.04125   0.0254  0.0148  0.2500  -7.1503   0.0000   0.2131
  12.000   0.9820   0.05596   0.04923   0.0240  0.0144  0.2500  -7.1543   0.0000   0.2132
  12.500   0.9485   0.06819   0.06193   0.0161  0.0143  0.2500  -6.9385   0.0000   0.2198
  13.000   0.8992   0.08683   0.08092   0.0024  0.0147  0.2500  -6.4368   0.0000   0.2333
  13.500   0.7405   0.13955   0.13368  -0.0248  0.0191  0.2500  -3.5925   0.0000   0.2709
  14.000   0.7380   0.14987   0.14398  -0.0293  0.0175  0.2500  -3.4550   0.0000   0.2767
  14.500   0.7474   0.15573   0.14985  -0.0322  0.0157  0.2500  -3.6504   0.0000   0.2793
  15.000   0.7423   0.16761   0.16168  -0.0372  0.0149  0.2500  -3.3539   0.0000   0.2860
  15.500   0.7428   0.17951   0.17354  -0.0421  0.0145  0.2500  -3.0358   0.0000   0.2923
  16.000   0.7478   0.19008   0.18409  -0.0465  0.0143  0.2500  -2.8488   0.0000   0.2975
  16.500   0.7557   0.19962   0.19363  -0.0507  0.0143  0.2500  -2.7266   0.0000   0.3019
  17.000   0.7657   0.20854   0.20255  -0.0545  0.0144  0.2500  -2.6530   0.0000   0.3055
  17.500   0.7776   0.21694   0.21100  -0.0575  0.0151  0.2500  -2.6502   0.0000   0.3077
  18.000   0.7854   0.22997   0.22399  -0.0644  0.0216  0.2500  -2.1310   0.0000   0.3156
  18.500   0.8027   0.24066   0.23473  -0.0644  0.0243  0.2500  -2.2502   0.0000   0.3132
  19.000   0.8169   0.24900   0.24309  -0.0685  0.0242  0.2500  -2.2073   0.0000   0.3162
  19.500   0.8306   0.25573   0.24982  -0.0736  0.0238  0.2500  -2.1340   0.0000   0.3203
  20.000   0.8442   0.26050   0.25459  -0.0812  0.0179  0.2500  -2.0110   0.0000   0.3271


